
##########                                Name:          2IC_1_2ICA
##########                    Molecular_Weight:             484.535
##########                DOCK_Rotatable_Bonds:                   5
##########                       Formal_Charge:         9.96739e-05
##########                     HBond_Acceptors:                  11
##########                        HBond_Donors:                   1
##########                         Heavy_Atoms:                  37
##########                            HA_RMSDs:               0.731
##########                            HA_RMSDh:               0.731
##########                            HA_RMSDm:               0.649
##########                          Grid_Score:          -65.192886
##########                     Grid_vdw_energy:          -54.175972
##########                      Grid_es_energy:          -11.016912
##########           Internal_energy_repulsive:           15.919907

@<TRIPOS>MOLECULE
2IC_1_2ICA
 57 61 1 0 0
SMALL
USER_CHARGES


@<TRIPOS>ATOM
      1 C1        -12.2794    2.0829   28.9576 C.3     1  <0>         0.0059
      2 C2        -10.4925   -2.3079   26.5527 C.ar    1  <0>        -0.0441
      3 C3         -8.5501   -1.4167   25.3772 C.ar    1  <0>        -0.0441
      4 C4        -11.0867   -1.0360   26.5219 C.ar    1  <0>        -0.0568
      5 C5         -9.1398   -0.1419   25.3489 C.ar    1  <0>        -0.0568
      6 C6         -6.9860    1.3583   30.1642 C.ar    1  <0>        -0.0214
      7 C7         -6.8510    0.0948   28.0852 C.ar    1  <0>        -0.0214
      8 C8         -5.0605   -0.0972   29.7589 C.ar    1  <0>        -0.0249
      9 C9        -13.6238    5.4800   23.7765 C.2     1  <0>        -0.0376
     10 C10       -13.5662    7.7139   24.5114 C.2     1  <0>        -0.0150
     11 C11       -11.1812    2.2761   24.8640 C.3     1  <0>        -0.0218
     12 C12       -10.7781    3.7594   26.6596 C.3     1  <0>         0.0001
     13 C13       -11.3060    4.5059   24.2690 C.3     1  <0>         0.0005
     14 C14        -8.6589   -3.7976   25.9393 C.1     1  <0>         0.0992
     15 C15        -9.2293   -2.4900   25.9730 C.ar    1  <0>         0.0518
     16 C16       -10.4047    0.0718   25.9667 C.ar    1  <0>        -0.0365
     17 C17        -7.5413    1.0161   28.9176 C.ar    1  <0>         0.0482
     18 C18        -5.7729    0.7888   30.5687 C.ar    1  <0>         0.0441
     19 C19        -5.6237   -0.4286   28.5227 C.ar    1  <0>         0.0441
     20 C20       -14.3172    6.7646   23.9368 C.2     1  <0>         0.0048
     21 C21       -12.3584    5.5663   24.2250 C.2     1  <0>         0.0348
     22 C22       -11.0446    1.4254   26.1042 C.3     1  <0>         0.0593
     23 C23        -8.9513    2.1240   27.3226 C.2     1  <0>         0.2572
     24 C24        -9.8952    1.4698   29.2468 C.2     1  <0>         0.3164
     25 C25       -15.7054    7.0249   23.4904 C.2     1  <0>         0.0722
     26 C26       -10.4641    2.3471   27.1734 C.3     1  <0>         0.1667
     27 N1         -8.2137   -4.8651   25.8773 N.1     1  <0>        -0.1909
     28 N2        -11.5263    3.5858   25.3887 N.4     1  <0>         0.2413
     29 N3        -10.8865    1.9978   28.5197 N.am    1  <0>        -0.2684
     30 N4         -8.7370    1.5414   28.5322 N.am    1  <0>        -0.1920
     31 O1        -16.1638    8.1838   23.5877 O.co2   1  <0>        -0.5446
     32 O2         -8.1297    2.4360   26.4612 O.2     1  <0>        -0.2722
     33 O3        -10.0425    0.9928   30.3702 O.2     1  <0>        -0.2516
     34 O4        -16.3651    6.0755   23.0155 O.co2   1  <0>        -0.5446
     35 S1        -11.9085    7.1883   24.6934 S.3     1  <0>        -0.0957
     36 CL1        -5.1524    1.1618   32.1251 CL      1  <0>        -0.0834
     37 CL2        -4.7720   -1.5479   27.5176 CL      1  <0>        -0.0834
     38 H1        -12.8831    2.5591   28.1712 H       1  <0>         0.0429
     39 H2        -12.6645    1.0713   29.1533 H       1  <0>         0.0429
     40 H3        -12.3381    2.6821   29.8782 H       1  <0>         0.0429
     41 H4        -11.0037   -3.1376   27.0183 H       1  <0>         0.0630
     42 H5         -7.5744   -1.5705   24.9405 H       1  <0>         0.0630
     43 H6        -12.0785   -0.9017   26.9278 H       1  <0>         0.0621
     44 H7         -8.6335    0.6764   24.8584 H       1  <0>         0.0621
     45 H8         -7.4953    2.0597   30.8085 H       1  <0>         0.0651
     46 H9         -7.2636   -0.1983   27.1311 H       1  <0>         0.0651
     47 H10        -4.1134   -0.5096   30.0742 H       1  <0>         0.0647
     48 H11       -14.0679    4.5895   23.3568 H       1  <0>         0.0634
     49 H12       -13.9370    8.6794   24.8221 H       1  <0>         0.0700
     50 H13       -10.2435    2.3056   24.2897 H       1  <0>         0.0821
     51 H14       -11.9639    1.8905   24.1943 H       1  <0>         0.0821
     52 H15       -11.3859    4.3101   27.3926 H       1  <0>         0.0841
     53 H16        -9.8488    4.3220   26.4862 H       1  <0>         0.0841
     54 H17       -11.3351    3.9359   23.3287 H       1  <0>         0.0872
     55 H18       -10.3229    4.9845   24.3895 H       1  <0>         0.0872
     56 H19       -12.0376    1.0548   26.3986 H       1  <0>         0.0429
     57 H20       -12.4703    3.7522   25.6736 H       1  <0>         0.2038
@<TRIPOS>BOND
     1     1    29    1
     2     2     4   ar
     3     2    15   ar
     4     3     5   ar
     5     3    15   ar
     6     4    16   ar
     7     5    16   ar
     8     6    17   ar
     9     6    18   ar
    10     7    17   ar
    11     7    19   ar
    12     8    18   ar
    13     8    19   ar
    14     9    20    1
    15     9    21    2
    16    10    20    2
    17    10    35    1
    18    11    22    1
    19    11    28    1
    20    12    26    1
    21    12    28    1
    22    13    21    1
    23    13    28    1
    24    14    15    1
    25    14    27    3
    26    16    22    1
    27    17    30    1
    28    18    36    1
    29    19    37    1
    30    20    25    1
    31    21    35    1
    32    22    26    1
    33    23    26    1
    34    23    30   am
    35    23    32    2
    36    24    29   am
    37    24    30   am
    38    24    33    2
    39    25    31    1
    40    25    34    2
    41    26    29    1
    42     1    38    1
    43     1    39    1
    44     1    40    1
    45     2    41    1
    46     3    42    1
    47     4    43    1
    48     5    44    1
    49     6    45    1
    50     7    46    1
    51     8    47    1
    52     9    48    1
    53    10    49    1
    54    11    50    1
    55    11    51    1
    56    12    52    1
    57    12    53    1
    58    13    54    1
    59    13    55    1
    60    22    56    1
    61    28    57    1
@<TRIPOS>SUBSTRUCTURE
     1 <0>         1 TEMP              0 ****  ****    0 ROOT

