
##########                                Name:          2IC_1_2ICA
##########                    Molecular_Weight:             484.535
##########                DOCK_Rotatable_Bonds:                   5
##########                       Formal_Charge:         9.96739e-05
##########                     HBond_Acceptors:                  11
##########                        HBond_Donors:                   1
##########                         Heavy_Atoms:                  37
##########                            HA_RMSDs:               0.593
##########                            HA_RMSDh:               0.593
##########                            HA_RMSDm:               0.593
##########                          Grid_Score:          -64.138046
##########                     Grid_vdw_energy:          -53.647869
##########                      Grid_es_energy:          -10.490173
##########           Internal_energy_repulsive:           12.536654

@<TRIPOS>MOLECULE
2IC_1_2ICA
 57 61 1 0 0
SMALL
USER_CHARGES


@<TRIPOS>ATOM
      1 C1        -12.7504    2.1131   28.9723 C.3     1  <0>         0.0059
      2 C2        -10.7860   -2.0848   26.5237 C.ar    1  <0>        -0.0441
      3 C3         -9.0885   -1.1812   25.0233 C.ar    1  <0>        -0.0441
      4 C4        -11.4105   -0.8277   26.5638 C.ar    1  <0>        -0.0568
      5 C5         -9.7081    0.0789   25.0652 C.ar    1  <0>        -0.0568
      6 C6         -7.5032    1.2588   30.1886 C.ar    1  <0>        -0.0214
      7 C7         -7.2701    0.2642   27.9765 C.ar    1  <0>        -0.0214
      8 C8         -5.5299   -0.0951   29.6756 C.ar    1  <0>        -0.0249
      9 C9        -14.0079    6.0218   24.2253 C.2     1  <0>        -0.0376
     10 C10       -13.6643    8.1800   25.0959 C.2     1  <0>        -0.0150
     11 C11       -11.6366    2.5421   24.9009 C.3     1  <0>        -0.0218
     12 C12       -11.2444    3.9214   26.7798 C.3     1  <0>         0.0001
     13 C13       -11.7647    4.8019   24.4336 C.3     1  <0>         0.0005
     14 C14        -9.0402   -3.5485   25.6478 C.1     1  <0>         0.0992
     15 C15        -9.6315   -2.2536   25.7468 C.ar    1  <0>         0.0518
     16 C16       -10.8589    0.2802   25.8792 C.ar    1  <0>        -0.0365
     17 C17        -8.0095    1.0613   28.8908 C.ar    1  <0>         0.0482
     18 C18        -6.2899    0.6693   30.5624 C.ar    1  <0>         0.0441
     19 C19        -6.0447   -0.2835   28.3891 C.ar    1  <0>         0.0441
     20 C20       -14.5533    7.3501   24.5335 C.2     1  <0>         0.0048
     21 C21       -12.7060    5.9563   24.5578 C.2     1  <0>         0.0348
     22 C22       -11.5027    1.6223   26.0910 C.3     1  <0>         0.0593
     23 C23        -9.4160    2.2551   27.3559 C.2     1  <0>         0.2572
     24 C24       -10.3659    1.4900   29.2358 C.2     1  <0>         0.3164
     25 C25       -15.9422    7.7712   24.2372 C.2     1  <0>         0.0722
     26 C26       -10.9288    2.4829   27.2135 C.3     1  <0>         0.1667
     27 N1         -8.5834   -4.6071   25.5363 N.1     1  <0>        -0.1909
     28 N2        -11.9871    3.8189   25.4980 N.4     1  <0>         0.2413
     29 N3        -11.3556    2.0564   28.5359 N.am    1  <0>        -0.2684
     30 N4         -9.2050    1.6049   28.5311 N.am    1  <0>        -0.1920
     31 O1        -16.4409    8.7117   24.8924 O.co2   1  <0>        -0.5446
     32 O2         -8.5918    2.6176   26.5170 O.2     1  <0>        -0.2722
     33 O3        -10.5164    0.9494   30.3295 O.2     1  <0>        -0.2516
     34 O4        -16.5617    7.1789   23.3276 O.co2   1  <0>        -0.5446
     35 S1        -12.0577    7.4900   25.0870 S.3     1  <0>        -0.0957
     36 CL1        -5.7291    0.8607   32.1734 CL      1  <0>        -0.0834
     37 CL2        -5.1335   -1.2523   27.2849 CL      1  <0>        -0.0834
     38 H1        -13.3523    2.6320   28.2118 H       1  <0>         0.0429
     39 H2        -13.1337    1.0911   29.1084 H       1  <0>         0.0429
     40 H3        -12.8143    2.6587   29.9253 H       1  <0>         0.0429
     41 H4        -11.1913   -2.9133   27.0857 H       1  <0>         0.0630
     42 H5         -8.1945   -1.3244   24.4345 H       1  <0>         0.0630
     43 H6        -12.3248   -0.7051   27.1254 H       1  <0>         0.0621
     44 H7         -9.3115    0.8953   24.4798 H       1  <0>         0.0621
     45 H8         -8.0503    1.8648   30.8957 H       1  <0>         0.0651
     46 H9         -7.6444    0.0822   26.9799 H       1  <0>         0.0651
     47 H10        -4.5834   -0.5234   29.9708 H       1  <0>         0.0647
     48 H11       -14.5734    5.2103   23.7918 H       1  <0>         0.0634
     49 H12       -13.9086    9.1502   25.5025 H       1  <0>         0.0700
     50 H13       -10.6967    2.6065   24.3330 H       1  <0>         0.0821
     51 H14       -12.4157    2.1935   24.2071 H       1  <0>         0.0821
     52 H15       -11.8564    4.4280   27.5405 H       1  <0>         0.0841
     53 H16       -10.3159    4.4951   26.6426 H       1  <0>         0.0841
     54 H17       -11.9246    4.3151   23.4602 H       1  <0>         0.0872
     55 H18       -10.7323    5.1751   24.5035 H       1  <0>         0.0872
     56 H19       -12.4960    1.2333   26.3597 H       1  <0>         0.0429
     57 H20       -12.9326    3.9667   25.7881 H       1  <0>         0.2038
@<TRIPOS>BOND
     1     1    29    1
     2     2     4   ar
     3     2    15   ar
     4     3     5   ar
     5     3    15   ar
     6     4    16   ar
     7     5    16   ar
     8     6    17   ar
     9     6    18   ar
    10     7    17   ar
    11     7    19   ar
    12     8    18   ar
    13     8    19   ar
    14     9    20    1
    15     9    21    2
    16    10    20    2
    17    10    35    1
    18    11    22    1
    19    11    28    1
    20    12    26    1
    21    12    28    1
    22    13    21    1
    23    13    28    1
    24    14    15    1
    25    14    27    3
    26    16    22    1
    27    17    30    1
    28    18    36    1
    29    19    37    1
    30    20    25    1
    31    21    35    1
    32    22    26    1
    33    23    26    1
    34    23    30   am
    35    23    32    2
    36    24    29   am
    37    24    30   am
    38    24    33    2
    39    25    31    1
    40    25    34    2
    41    26    29    1
    42     1    38    1
    43     1    39    1
    44     1    40    1
    45     2    41    1
    46     3    42    1
    47     4    43    1
    48     5    44    1
    49     6    45    1
    50     7    46    1
    51     8    47    1
    52     9    48    1
    53    10    49    1
    54    11    50    1
    55    11    51    1
    56    12    52    1
    57    12    53    1
    58    13    54    1
    59    13    55    1
    60    22    56    1
    61    28    57    1
@<TRIPOS>SUBSTRUCTURE
     1 <0>         1 TEMP              0 ****  ****    0 ROOT

