
##########                                Name:          2IC_1_2ICA
##########                    Molecular_Weight:             484.535
##########                DOCK_Rotatable_Bonds:                   5
##########                       Formal_Charge:         9.96739e-05
##########                     HBond_Acceptors:                  11
##########                        HBond_Donors:                   1
##########                         Heavy_Atoms:                  37
##########                            HA_RMSDs:               0.432
##########                            HA_RMSDh:               0.432
##########                            HA_RMSDm:               0.432
##########                          Grid_Score:          -66.786324
##########                     Grid_vdw_energy:          -57.366154
##########                      Grid_es_energy:           -9.420173
##########           Internal_energy_repulsive:           15.405939

@<TRIPOS>MOLECULE
2IC_1_2ICA
 57 61 1 0 0
SMALL
USER_CHARGES


@<TRIPOS>ATOM
      1 C1        -12.6077    2.3518   28.8060 C.3     1  <0>         0.0059
      2 C2        -10.9190   -2.0597   26.4132 C.ar    1  <0>        -0.0441
      3 C3         -8.9587   -1.2485   25.2098 C.ar    1  <0>        -0.0441
      4 C4        -11.4603   -0.7643   26.3919 C.ar    1  <0>        -0.0568
      5 C5         -9.4953    0.0498   25.1910 C.ar    1  <0>        -0.0568
      6 C6         -7.4709    1.2369   30.1976 C.ar    1  <0>        -0.0214
      7 C7         -7.1714    0.2538   27.9883 C.ar    1  <0>        -0.0214
      8 C8         -5.5234   -0.1796   29.7605 C.ar    1  <0>        -0.0249
      9 C9        -13.4172    6.1620   23.3944 C.2     1  <0>        -0.0376
     10 C10       -13.5324    8.0641   24.7736 C.2     1  <0>        -0.0150
     11 C11       -11.3838    2.5739   24.7497 C.3     1  <0>        -0.0218
     12 C12       -10.9655    4.0016   26.5863 C.3     1  <0>         0.0001
     13 C13       -11.3893    4.8183   24.1980 C.3     1  <0>         0.0005
     14 C14        -9.1579   -3.6235   25.7720 C.1     1  <0>         0.0992
     15 C15        -9.6730   -2.2934   25.8148 C.ar    1  <0>         0.0518
     16 C16       -10.7411    0.3150   25.8275 C.ar    1  <0>        -0.0365
     17 C17        -7.9241    1.0680   28.8764 C.ar    1  <0>         0.0482
     18 C18        -6.2964    0.6028   30.6198 C.ar    1  <0>         0.0441
     19 C19        -5.9853   -0.3391   28.4503 C.ar    1  <0>         0.0441
     20 C20       -14.0936    7.4182   23.7426 C.2     1  <0>         0.0048
     21 C21       -12.3498    5.9635   24.1887 C.2     1  <0>         0.0348
     22 C22       -11.3222    1.6938   25.9751 C.3     1  <0>         0.0593
     23 C23        -9.2353    2.2708   27.2660 C.2     1  <0>         0.2572
     24 C24       -10.2634    1.6236   29.1490 C.2     1  <0>         0.3164
     25 C25       -15.2697    7.9599   23.0232 C.2     1  <0>         0.0722
     26 C26       -10.7314    2.5666   27.0792 C.3     1  <0>         0.1667
     27 N1         -8.7583   -4.7085   25.7028 N.1     1  <0>        -0.1909
     28 N2        -11.6838    3.8878   25.2917 N.4     1  <0>         0.2413
     29 N3        -11.2080    2.2110   28.4055 N.am    1  <0>        -0.2684
     30 N4         -9.0829    1.6555   28.4687 N.am    1  <0>        -0.1920
     31 O1        -15.6837    9.1023   23.3167 O.co2   1  <0>        -0.5446
     32 O2         -8.3757    2.5613   26.4347 O.2     1  <0>        -0.2722
     33 O3        -10.4647    1.1320   30.2576 O.2     1  <0>        -0.2516
     34 O4        -15.7974    7.2584   22.1336 O.co2   1  <0>        -0.5446
     35 S1        -12.0252    7.3149   25.2475 S.3     1  <0>        -0.0957
     36 CL1        -5.8032    0.7610   32.2563 CL      1  <0>        -0.0834
     37 CL2        -5.0583   -1.3292   27.3785 CL      1  <0>        -0.0834
     38 H1        -13.1660    2.8708   28.0130 H       1  <0>         0.0429
     39 H2        -13.0441    1.3555   28.9697 H       1  <0>         0.0429
     40 H3        -12.6656    2.9350   29.7369 H       1  <0>         0.0429
     41 H4        -11.4573   -2.8681   26.8858 H       1  <0>         0.0630
     42 H5         -7.9967   -1.4420   24.7588 H       1  <0>         0.0630
     43 H6        -12.4396   -0.5894   26.8124 H       1  <0>         0.0621
     44 H7         -8.9627    0.8469   24.6936 H       1  <0>         0.0621
     45 H8         -8.0286    1.8552   30.8855 H       1  <0>         0.0651
     46 H9         -7.5060    0.0934   26.9741 H       1  <0>         0.0651
     47 H10        -4.6063   -0.6426   30.0937 H       1  <0>         0.0647
     48 H11       -13.7329    5.4906   22.6095 H       1  <0>         0.0634
     49 H12       -13.9563    8.9353   25.2507 H       1  <0>         0.0700
     50 H13       -10.4295    2.5713   24.2025 H       1  <0>         0.0821
     51 H14       -12.1637    2.2382   24.0504 H       1  <0>         0.0821
     52 H15       -11.5685    4.5654   27.3134 H       1  <0>         0.0841
     53 H16       -10.0069    4.5239   26.4508 H       1  <0>         0.0841
     54 H17       -11.4674    4.2802   23.2418 H       1  <0>         0.0872
     55 H18       -10.3696    5.2098   24.3283 H       1  <0>         0.0872
     56 H19       -12.3392    1.3639   26.2338 H       1  <0>         0.0429
     57 H20       -12.6270    4.0921   25.5535 H       1  <0>         0.2038
@<TRIPOS>BOND
     1     1    29    1
     2     2     4   ar
     3     2    15   ar
     4     3     5   ar
     5     3    15   ar
     6     4    16   ar
     7     5    16   ar
     8     6    17   ar
     9     6    18   ar
    10     7    17   ar
    11     7    19   ar
    12     8    18   ar
    13     8    19   ar
    14     9    20    1
    15     9    21    2
    16    10    20    2
    17    10    35    1
    18    11    22    1
    19    11    28    1
    20    12    26    1
    21    12    28    1
    22    13    21    1
    23    13    28    1
    24    14    15    1
    25    14    27    3
    26    16    22    1
    27    17    30    1
    28    18    36    1
    29    19    37    1
    30    20    25    1
    31    21    35    1
    32    22    26    1
    33    23    26    1
    34    23    30   am
    35    23    32    2
    36    24    29   am
    37    24    30   am
    38    24    33    2
    39    25    31    1
    40    25    34    2
    41    26    29    1
    42     1    38    1
    43     1    39    1
    44     1    40    1
    45     2    41    1
    46     3    42    1
    47     4    43    1
    48     5    44    1
    49     6    45    1
    50     7    46    1
    51     8    47    1
    52     9    48    1
    53    10    49    1
    54    11    50    1
    55    11    51    1
    56    12    52    1
    57    12    53    1
    58    13    54    1
    59    13    55    1
    60    22    56    1
    61    28    57    1
@<TRIPOS>SUBSTRUCTURE
     1 <0>         1 TEMP              0 ****  ****    0 ROOT

