
##########                                Name:          2IC_1_2ICA
##########                    Molecular_Weight:             484.535
##########                DOCK_Rotatable_Bonds:                   5
##########                       Formal_Charge:         9.96739e-05
##########                     HBond_Acceptors:                  11
##########                        HBond_Donors:                   1
##########                         Heavy_Atoms:                  37
##########                            HA_RMSDs:               0.600
##########                            HA_RMSDh:               0.600
##########                            HA_RMSDm:               0.600
##########                          Grid_Score:          -66.386070
##########                     Grid_vdw_energy:          -55.920284
##########                      Grid_es_energy:          -10.465786
##########           Internal_energy_repulsive:           12.203397

@<TRIPOS>MOLECULE
2IC_1_2ICA
 57 61 1 0 0
SMALL
USER_CHARGES


@<TRIPOS>ATOM
      1 C1        -12.7135    2.1827   29.1499 C.3     1  <0>         0.0059
      2 C2        -10.7982   -2.1148   26.8915 C.ar    1  <0>        -0.0441
      3 C3         -9.2353   -1.3346   25.1892 C.ar    1  <0>        -0.0441
      4 C4        -11.4117   -0.8518   26.8980 C.ar    1  <0>        -0.0568
      5 C5         -9.8439   -0.0684   25.1967 C.ar    1  <0>        -0.0568
      6 C6         -7.4723    1.2595   30.3015 C.ar    1  <0>        -0.0214
      7 C7         -7.2699    0.2316   28.1016 C.ar    1  <0>        -0.0214
      8 C8         -5.5166   -0.1198   29.7887 C.ar    1  <0>        -0.0249
      9 C9        -14.0147    5.9274   24.3724 C.2     1  <0>        -0.0376
     10 C10       -13.5637    8.1407   25.0293 C.2     1  <0>        -0.0150
     11 C11       -11.6797    2.4358   25.0429 C.3     1  <0>        -0.0218
     12 C12       -11.2254    3.8796   26.8583 C.3     1  <0>         0.0001
     13 C13       -11.7812    4.6778   24.4909 C.3     1  <0>         0.0005
     14 C14        -9.1417   -3.6533   25.9711 C.1     1  <0>         0.0992
     15 C15        -9.7169   -2.3487   26.0305 C.ar    1  <0>         0.0518
     16 C16       -10.9180    0.2004   26.0919 C.ar    1  <0>        -0.0365
     17 C17        -7.9930    1.0484   29.0116 C.ar    1  <0>         0.0482
     18 C18        -6.2607    0.6640   30.6719 C.ar    1  <0>         0.0441
     19 C19        -6.0456   -0.3215   28.5101 C.ar    1  <0>         0.0441
     20 C20       -14.5107    7.2883   24.6146 C.2     1  <0>         0.0048
     21 C21       -12.6902    5.8595   24.5982 C.2     1  <0>         0.0348
     22 C22       -11.5354    1.5604   26.2647 C.3     1  <0>         0.0593
     23 C23        -9.4124    2.2059   27.4608 C.2     1  <0>         0.2572
     24 C24       -10.3343    1.5299   29.3881 C.2     1  <0>         0.3164
     25 C25       -15.9131    7.7154   24.4027 C.2     1  <0>         0.0722
     26 C26       -10.9240    2.4536   27.3409 C.3     1  <0>         0.1667
     27 N1         -8.7006   -4.7216   25.8946 N.1     1  <0>        -0.1909
     28 N2        -11.9968    3.7405   25.5971 N.4     1  <0>         0.2413
     29 N3        -11.3294    2.0856   28.6874 N.am    1  <0>        -0.2684
     30 N4         -9.1870    1.5980   28.6558 N.am    1  <0>        -0.1920
     31 O1        -16.3291    8.7364   24.9918 O.co2   1  <0>        -0.5446
     32 O2         -8.6005    2.5219   26.5917 O.2     1  <0>        -0.2722
     33 O3        -10.4702    1.0344   30.5049 O.2     1  <0>        -0.2516
     34 O4        -16.6277    7.0455   23.6264 O.co2   1  <0>        -0.5446
     35 S1        -11.9748    7.4160   24.9419 S.3     1  <0>        -0.0957
     36 CL1        -5.6825    0.8729   32.2745 CL      1  <0>        -0.0834
     37 CL2        -5.1542   -1.3142   27.4110 CL      1  <0>        -0.0834
     38 H1        -13.3230    2.6821   28.3824 H       1  <0>         0.0429
     39 H2        -13.1103    1.1733   29.3334 H       1  <0>         0.0429
     40 H3        -12.7484    2.7655   30.0822 H       1  <0>         0.0429
     41 H4        -11.1557   -2.8982   27.5433 H       1  <0>         0.0630
     42 H5         -8.3971   -1.5273   24.5360 H       1  <0>         0.0630
     43 H6        -12.2727   -0.6813   27.5273 H       1  <0>         0.0621
     44 H7         -9.4970    0.7013   24.5232 H       1  <0>         0.0621
     45 H8         -8.0068    1.8804   31.0052 H       1  <0>         0.0651
     46 H9         -7.6556    0.0391   27.1113 H       1  <0>         0.0651
     47 H10        -4.5711   -0.5526   30.0808 H       1  <0>         0.0647
     48 H11       -14.6280    5.0964   24.0569 H       1  <0>         0.0634
     49 H12       -13.7569    9.1461   25.3733 H       1  <0>         0.0700
     50 H13       -10.7512    2.4624   24.4536 H       1  <0>         0.0821
     51 H14       -12.4789    2.0741   24.3793 H       1  <0>         0.0821
     52 H15       -11.8129    4.4253   27.6113 H       1  <0>         0.0841
     53 H16       -10.2909    4.4318   26.6798 H       1  <0>         0.0841
     54 H17       -11.9809    4.1599   23.5412 H       1  <0>         0.0872
     55 H18       -10.7384    5.0270   24.5180 H       1  <0>         0.0872
     56 H19       -12.5289    1.1989   26.5688 H       1  <0>         0.0429
     57 H20       -12.9334    3.9152   25.9006 H       1  <0>         0.2038
@<TRIPOS>BOND
     1     1    29    1
     2     2     4   ar
     3     2    15   ar
     4     3     5   ar
     5     3    15   ar
     6     4    16   ar
     7     5    16   ar
     8     6    17   ar
     9     6    18   ar
    10     7    17   ar
    11     7    19   ar
    12     8    18   ar
    13     8    19   ar
    14     9    20    1
    15     9    21    2
    16    10    20    2
    17    10    35    1
    18    11    22    1
    19    11    28    1
    20    12    26    1
    21    12    28    1
    22    13    21    1
    23    13    28    1
    24    14    15    1
    25    14    27    3
    26    16    22    1
    27    17    30    1
    28    18    36    1
    29    19    37    1
    30    20    25    1
    31    21    35    1
    32    22    26    1
    33    23    26    1
    34    23    30   am
    35    23    32    2
    36    24    29   am
    37    24    30   am
    38    24    33    2
    39    25    31    1
    40    25    34    2
    41    26    29    1
    42     1    38    1
    43     1    39    1
    44     1    40    1
    45     2    41    1
    46     3    42    1
    47     4    43    1
    48     5    44    1
    49     6    45    1
    50     7    46    1
    51     8    47    1
    52     9    48    1
    53    10    49    1
    54    11    50    1
    55    11    51    1
    56    12    52    1
    57    12    53    1
    58    13    54    1
    59    13    55    1
    60    22    56    1
    61    28    57    1
@<TRIPOS>SUBSTRUCTURE
     1 <0>         1 TEMP              0 ****  ****    0 ROOT

