
##########                                Name:          2IC_1_2ICA
##########                    Molecular_Weight:             484.535
##########                DOCK_Rotatable_Bonds:                   5
##########                       Formal_Charge:         9.96739e-05
##########                     HBond_Acceptors:                  11
##########                        HBond_Donors:                   1
##########                         Heavy_Atoms:                  37
##########                            HA_RMSDs:               0.542
##########                            HA_RMSDh:               0.542
##########                            HA_RMSDm:               0.537
##########                          Grid_Score:          -64.259148
##########                     Grid_vdw_energy:          -54.448528
##########                      Grid_es_energy:           -9.810619
##########           Internal_energy_repulsive:           13.339524

@<TRIPOS>MOLECULE
2IC_1_2ICA
 57 61 1 0 0
SMALL
USER_CHARGES


@<TRIPOS>ATOM
      1 C1        -12.8037    2.4532   28.7391 C.3     1  <0>         0.0059
      2 C2        -10.9101   -1.8891   26.4673 C.ar    1  <0>        -0.0441
      3 C3         -9.0792   -1.0725   25.0780 C.ar    1  <0>        -0.0441
      4 C4        -11.4902   -0.6107   26.4431 C.ar    1  <0>        -0.0568
      5 C5         -9.6547    0.2090   25.0557 C.ar    1  <0>        -0.0568
      6 C6         -7.6548    1.4515   30.2002 C.ar    1  <0>        -0.0214
      7 C7         -7.3329    0.4340   28.0097 C.ar    1  <0>        -0.0214
      8 C8         -5.6901    0.0486   29.7977 C.ar    1  <0>        -0.0249
      9 C9        -13.6828    6.2115   23.4653 C.2     1  <0>        -0.0376
     10 C10       -13.6739    8.2390   24.6581 C.2     1  <0>        -0.0150
     11 C11       -11.5189    2.7167   24.7041 C.3     1  <0>        -0.0218
     12 C12       -11.1566    4.1432   26.5535 C.3     1  <0>         0.0001
     13 C13       -11.5569    4.9631   24.1622 C.3     1  <0>         0.0005
     14 C14        -9.1602   -3.4283   25.7414 C.1     1  <0>         0.0992
     15 C15        -9.7102   -2.1120   25.7776 C.ar    1  <0>         0.0518
     16 C16       -10.8522    0.4649   25.7823 C.ar    1  <0>        -0.0365
     17 C17        -8.0990    1.2552   28.8797 C.ar    1  <0>         0.0482
     18 C18        -6.4760    0.8373   30.6393 C.ar    1  <0>         0.0441
     19 C19        -6.1432   -0.1383   28.4880 C.ar    1  <0>         0.0441
     20 C20       -14.3361    7.4924   23.7641 C.2     1  <0>         0.0048
     21 C21       -12.5305    6.0971   24.1501 C.2     1  <0>         0.0348
     22 C22       -11.4609    1.8321   25.9265 C.3     1  <0>         0.0593
     23 C23        -9.4060    2.4413   27.2535 C.2     1  <0>         0.2572
     24 C24       -10.4522    1.7665   29.1168 C.2     1  <0>         0.3164
     25 C25       -15.5934    7.9552   23.1324 C.2     1  <0>         0.0722
     26 C26       -10.9041    2.7104   27.0439 C.3     1  <0>         0.1667
     27 N1         -8.7349   -4.5039   25.6795 N.1     1  <0>        -0.1909
     28 N2        -11.8517    4.0222   25.2469 N.4     1  <0>         0.2413
     29 N3        -11.3954    2.3400   28.3607 N.am    1  <0>        -0.2684
     30 N4         -9.2617    1.8232   28.4558 N.am    1  <0>        -0.1920
     31 O1        -16.1750    8.9551   23.6063 O.co2   1  <0>        -0.5446
     32 O2         -8.5386    2.7513   26.4375 O.2     1  <0>        -0.2722
     33 O3        -10.6623    1.2662   30.2199 O.2     1  <0>        -0.2516
     34 O4        -16.0201    7.3361   22.1341 O.co2   1  <0>        -0.5446
     35 S1        -12.1116    7.5473   25.0299 S.3     1  <0>        -0.0957
     36 CL1        -5.9935    1.0288   32.2755 CL      1  <0>        -0.0834
     37 CL2        -5.2000   -1.1367   27.4384 CL      1  <0>        -0.0834
     38 H1        -13.3587    2.9656   27.9394 H       1  <0>         0.0429
     39 H2        -13.2243    1.4483   28.8913 H       1  <0>         0.0429
     40 H3        -12.8873    3.0309   29.6714 H       1  <0>         0.0429
     41 H4        -11.3835   -2.6927   27.0119 H       1  <0>         0.0630
     42 H5         -8.1516   -1.2573   24.5568 H       1  <0>         0.0630
     43 H6        -12.4371   -0.4462   26.9360 H       1  <0>         0.0621
     44 H7         -9.1885    1.0003   24.4874 H       1  <0>         0.0621
     45 H8         -8.2227    2.0755   30.8743 H       1  <0>         0.0651
     46 H9         -7.6603    0.2526   26.9966 H       1  <0>         0.0651
     47 H10        -4.7700   -0.3989   30.1437 H       1  <0>         0.0647
     48 H11       -14.0732    5.4649   22.7896 H       1  <0>         0.0634
     49 H12       -14.0558    9.1507   25.0931 H       1  <0>         0.0700
     50 H13       -10.5561    2.7340   24.1724 H       1  <0>         0.0821
     51 H14       -12.2811    2.3699   23.9908 H       1  <0>         0.0821
     52 H15       -11.7815    4.6925   27.2731 H       1  <0>         0.0841
     53 H16       -10.2057    4.6836   26.4358 H       1  <0>         0.0841
     54 H17       -11.6188    4.4303   23.2019 H       1  <0>         0.0872
     55 H18       -10.5432    5.3655   24.3056 H       1  <0>         0.0872
     56 H19       -12.4757    1.4824   26.1673 H       1  <0>         0.0429
     57 H20       -12.8026    4.2080   25.4943 H       1  <0>         0.2038
@<TRIPOS>BOND
     1     1    29    1
     2     2     4   ar
     3     2    15   ar
     4     3     5   ar
     5     3    15   ar
     6     4    16   ar
     7     5    16   ar
     8     6    17   ar
     9     6    18   ar
    10     7    17   ar
    11     7    19   ar
    12     8    18   ar
    13     8    19   ar
    14     9    20    1
    15     9    21    2
    16    10    20    2
    17    10    35    1
    18    11    22    1
    19    11    28    1
    20    12    26    1
    21    12    28    1
    22    13    21    1
    23    13    28    1
    24    14    15    1
    25    14    27    3
    26    16    22    1
    27    17    30    1
    28    18    36    1
    29    19    37    1
    30    20    25    1
    31    21    35    1
    32    22    26    1
    33    23    26    1
    34    23    30   am
    35    23    32    2
    36    24    29   am
    37    24    30   am
    38    24    33    2
    39    25    31    1
    40    25    34    2
    41    26    29    1
    42     1    38    1
    43     1    39    1
    44     1    40    1
    45     2    41    1
    46     3    42    1
    47     4    43    1
    48     5    44    1
    49     6    45    1
    50     7    46    1
    51     8    47    1
    52     9    48    1
    53    10    49    1
    54    11    50    1
    55    11    51    1
    56    12    52    1
    57    12    53    1
    58    13    54    1
    59    13    55    1
    60    22    56    1
    61    28    57    1
@<TRIPOS>SUBSTRUCTURE
     1 <0>         1 TEMP              0 ****  ****    0 ROOT

