
##########                                Name:          2IC_1_2ICA
##########                    Molecular_Weight:             484.535
##########                DOCK_Rotatable_Bonds:                   5
##########                       Formal_Charge:         9.96739e-05
##########                     HBond_Acceptors:                  11
##########                        HBond_Donors:                   1
##########                         Heavy_Atoms:                  37
##########                            HA_RMSDs:               0.601
##########                            HA_RMSDh:               0.601
##########                            HA_RMSDm:               0.546
##########                          Grid_Score:          -65.693573
##########                     Grid_vdw_energy:          -56.447849
##########                      Grid_es_energy:           -9.245723
##########           Internal_energy_repulsive:           12.864199

@<TRIPOS>MOLECULE
2IC_1_2ICA
 57 61 1 0 0
SMALL
USER_CHARGES


@<TRIPOS>ATOM
      1 C1        -12.4062    2.3460   29.0188 C.3     1  <0>         0.0059
      2 C2        -10.7029   -2.0476   26.7313 C.ar    1  <0>        -0.0441
      3 C3         -8.9806   -1.3087   25.1702 C.ar    1  <0>        -0.0441
      4 C4        -11.2520   -0.7553   26.7272 C.ar    1  <0>        -0.0568
      5 C5         -9.5247   -0.0135   25.1676 C.ar    1  <0>        -0.0568
      6 C6         -7.2380    1.1829   30.2605 C.ar    1  <0>        -0.0214
      7 C7         -7.0271    0.1742   28.0525 C.ar    1  <0>        -0.0214
      8 C8         -5.3274   -0.2670   29.7730 C.ar    1  <0>        -0.0249
      9 C9        -13.3238    5.9650   23.3440 C.2     1  <0>        -0.0376
     10 C10       -13.8209    7.7863   24.7474 C.2     1  <0>        -0.0150
     11 C11       -11.2948    2.5556   24.9296 C.3     1  <0>        -0.0218
     12 C12       -10.8084    3.9777   26.7538 C.3     1  <0>         0.0001
     13 C13       -11.2900    4.8001   24.3785 C.3     1  <0>         0.0005
     14 C14        -9.0603   -3.6469   25.8933 C.1     1  <0>         0.0992
     15 C15        -9.5732   -2.3163   25.9459 C.ar    1  <0>         0.0518
     16 C16       -10.6481    0.2889   25.9886 C.ar    1  <0>        -0.0365
     17 C17        -7.7377    1.0082   28.9569 C.ar    1  <0>         0.0482
     18 C18        -6.0596    0.5352   30.6497 C.ar    1  <0>         0.0441
     19 C19        -5.8352   -0.4321   28.4807 C.ar    1  <0>         0.0441
     20 C20       -14.1691    7.1310   23.6319 C.2     1  <0>         0.0048
     21 C21       -12.3562    5.8421   24.2705 C.2     1  <0>         0.0348
     22 C22       -11.2088    1.6743   26.1528 C.3     1  <0>         0.0593
     23 C23        -9.0798    2.2267   27.3842 C.2     1  <0>         0.2572
     24 C24       -10.0617    1.5906   29.2954 C.2     1  <0>         0.3164
     25 C25       -15.2900    7.5811   22.7745 C.2     1  <0>         0.0722
     26 C26       -10.5771    2.5398   27.2398 C.3     1  <0>         0.1667
     27 N1         -8.6681   -4.7343   25.8202 N.1     1  <0>        -0.1909
     28 N2        -11.5642    3.8726   25.4799 N.4     1  <0>         0.2413
     29 N3        -11.0201    2.1892   28.5790 N.am    1  <0>        -0.2684
     30 N4         -8.9006    1.6092   28.5821 N.am    1  <0>        -0.1920
     31 O1        -16.2054    8.2620   23.2853 O.co2   1  <0>        -0.5446
     32 O2         -8.2407    2.5076   26.5290 O.2     1  <0>        -0.2722
     33 O3        -10.2374    1.1010   30.4093 O.2     1  <0>        -0.2516
     34 O4        -15.2711    7.2761   21.5626 O.co2   1  <0>        -0.5446
     35 S1        -12.3193    7.1736   25.4010 S.3     1  <0>        -0.0957
     36 CL1        -5.5096    0.7017   32.2672 CL      1  <0>        -0.0834
     37 CL2        -4.9593   -1.4463   27.3887 CL      1  <0>        -0.0834
     38 H1        -12.9807    2.8717   28.2420 H       1  <0>         0.0429
     39 H2        -12.8493    1.3547   29.1947 H       1  <0>         0.0429
     40 H3        -12.4311    2.9295   29.9510 H       1  <0>         0.0429
     41 H4        -11.1464   -2.8268   27.3334 H       1  <0>         0.0630
     42 H5         -8.1064   -1.5286   24.5754 H       1  <0>         0.0630
     43 H6        -12.1482   -0.5558   27.2960 H       1  <0>         0.0621
     44 H7         -9.0909    0.7531   24.5427 H       1  <0>         0.0621
     45 H8         -7.7632    1.8161   30.9603 H       1  <0>         0.0651
     46 H9         -7.3979    0.0091   27.0516 H       1  <0>         0.0651
     47 H10        -4.4066   -0.7406   30.0802 H       1  <0>         0.0647
     48 H11       -13.4600    5.2988   22.5050 H       1  <0>         0.0634
     49 H12       -14.3939    8.5896   25.1864 H       1  <0>         0.0700
     50 H13       -10.3565    2.5421   24.3557 H       1  <0>         0.0821
     51 H14       -12.0980    2.2291   24.2526 H       1  <0>         0.0821
     52 H15       -11.3840    4.5481   27.4976 H       1  <0>         0.0841
     53 H16        -9.8480    4.4889   26.5913 H       1  <0>         0.0841
     54 H17       -11.2497    4.2329   23.4369 H       1  <0>         0.0872
     55 H18       -10.3251    5.2955   24.5619 H       1  <0>         0.0872
     56 H19       -12.2219    1.3561   26.4400 H       1  <0>         0.0429
     57 H20       -12.4972    4.0877   25.7683 H       1  <0>         0.2038
@<TRIPOS>BOND
     1     1    29    1
     2     2     4   ar
     3     2    15   ar
     4     3     5   ar
     5     3    15   ar
     6     4    16   ar
     7     5    16   ar
     8     6    17   ar
     9     6    18   ar
    10     7    17   ar
    11     7    19   ar
    12     8    18   ar
    13     8    19   ar
    14     9    20    1
    15     9    21    2
    16    10    20    2
    17    10    35    1
    18    11    22    1
    19    11    28    1
    20    12    26    1
    21    12    28    1
    22    13    21    1
    23    13    28    1
    24    14    15    1
    25    14    27    3
    26    16    22    1
    27    17    30    1
    28    18    36    1
    29    19    37    1
    30    20    25    1
    31    21    35    1
    32    22    26    1
    33    23    26    1
    34    23    30   am
    35    23    32    2
    36    24    29   am
    37    24    30   am
    38    24    33    2
    39    25    31    1
    40    25    34    2
    41    26    29    1
    42     1    38    1
    43     1    39    1
    44     1    40    1
    45     2    41    1
    46     3    42    1
    47     4    43    1
    48     5    44    1
    49     6    45    1
    50     7    46    1
    51     8    47    1
    52     9    48    1
    53    10    49    1
    54    11    50    1
    55    11    51    1
    56    12    52    1
    57    12    53    1
    58    13    54    1
    59    13    55    1
    60    22    56    1
    61    28    57    1
@<TRIPOS>SUBSTRUCTURE
     1 <0>         1 TEMP              0 ****  ****    0 ROOT

