
##########                                Name:          2IC_1_2ICA
##########                    Molecular_Weight:             484.535
##########                DOCK_Rotatable_Bonds:                   5
##########                       Formal_Charge:         9.96739e-05
##########                     HBond_Acceptors:                  11
##########                        HBond_Donors:                   1
##########                         Heavy_Atoms:                  37
##########                            HA_RMSDs:               0.589
##########                            HA_RMSDh:               0.589
##########                            HA_RMSDm:               0.566
##########                          Grid_Score:          -65.210587
##########                     Grid_vdw_energy:          -54.881790
##########                      Grid_es_energy:          -10.328796
##########           Internal_energy_repulsive:           12.466917

@<TRIPOS>MOLECULE
2IC_1_2ICA
 57 61 1 0 0
SMALL
USER_CHARGES


@<TRIPOS>ATOM
      1 C1        -12.6534    2.3446   28.8168 C.3     1  <0>         0.0059
      2 C2        -10.8750   -1.9481   26.3723 C.ar    1  <0>        -0.0441
      3 C3         -9.1119   -1.1109   24.9095 C.ar    1  <0>        -0.0441
      4 C4        -11.4486   -0.6669   26.4037 C.ar    1  <0>        -0.0568
      5 C5         -9.6807    0.1733   24.9427 C.ar    1  <0>        -0.0568
      6 C6         -7.3784    1.3996   29.9851 C.ar    1  <0>        -0.0214
      7 C7         -7.3086    0.1924   27.8697 C.ar    1  <0>        -0.0214
      8 C8         -5.5172   -0.1215   29.5240 C.ar    1  <0>        -0.0249
      9 C9        -13.7997    6.0642   23.6110 C.2     1  <0>        -0.0376
     10 C10       -13.8438    8.1419   24.7133 C.2     1  <0>        -0.0150
     11 C11       -11.5342    2.7010   24.7399 C.3     1  <0>        -0.0218
     12 C12       -11.0865    4.0791   26.6073 C.3     1  <0>         0.0001
     13 C13       -11.5794    4.9604   24.2555 C.3     1  <0>         0.0005
     14 C14        -9.1725   -3.4796   25.5275 C.1     1  <0>         0.0992
     15 C15        -9.7127   -2.1620   25.6185 C.ar    1  <0>         0.0518
     16 C16       -10.8387    0.4193   25.7338 C.ar    1  <0>        -0.0365
     17 C17        -7.9550    1.1168   28.7333 C.ar    1  <0>         0.0482
     18 C18        -6.1873    0.7691   30.3641 C.ar    1  <0>         0.0441
     19 C19        -6.1013   -0.3936   28.2829 C.ar    1  <0>         0.0441
     20 C20       -14.5062    7.3220   23.8861 C.2     1  <0>         0.0048
     21 C21       -12.6121    6.0409   24.2425 C.2     1  <0>         0.0348
     22 C22       -11.4317    1.7860   25.9367 C.3     1  <0>         0.0593
     23 C23        -9.3199    2.3503   27.1923 C.2     1  <0>         0.2572
     24 C24       -10.2930    1.6354   29.0800 C.2     1  <0>         0.3164
     25 C25       -15.8149    7.6900   23.2978 C.2     1  <0>         0.0722
     26 C26       -10.8236    2.6331   27.0514 C.3     1  <0>         0.1667
     27 N1         -8.7568   -4.5556   25.4220 N.1     1  <0>        -0.1909
     28 N2        -11.8356    3.9945   25.3280 N.4     1  <0>         0.2413
     29 N3        -11.2627    2.2328   28.3779 N.am    1  <0>        -0.2684
     30 N4         -9.1303    1.7018   28.3720 N.am    1  <0>        -0.1920
     31 O1        -16.3017    8.8108   23.5611 O.co2   1  <0>        -0.5446
     32 O2         -8.4849    2.6757   26.3489 O.2     1  <0>        -0.2722
     33 O3        -10.4608    1.1090   30.1782 O.2     1  <0>        -0.2516
     34 O4        -16.3793    6.8690   22.5431 O.co2   1  <0>        -0.5446
     35 S1        -12.2308    7.5495   25.0371 S.3     1  <0>        -0.0957
     36 CL1        -5.5423    1.0711   31.9259 CL      1  <0>        -0.0834
     37 CL2        -5.3029   -1.5173   27.2398 CL      1  <0>        -0.0834
     38 H1        -13.2374    2.8798   28.0537 H       1  <0>         0.0429
     39 H2        -13.0741    1.3386   28.9615 H       1  <0>         0.0429
     40 H3        -12.6947    2.8994   29.7658 H       1  <0>         0.0429
     41 H4        -11.3249   -2.7608   26.9234 H       1  <0>         0.0630
     42 H5         -8.2127   -1.2890   24.3386 H       1  <0>         0.0630
     43 H6        -12.3685   -0.5085   26.9470 H       1  <0>         0.0621
     44 H7         -9.2393    0.9742   24.3680 H       1  <0>         0.0621
     45 H8         -7.8542    2.1024   30.6530 H       1  <0>         0.0651
     46 H9         -7.7388   -0.0558   26.9107 H       1  <0>         0.0651
     47 H10        -4.5860   -0.5815   29.8202 H       1  <0>         0.0647
     48 H11       -14.1807    5.2684   22.9883 H       1  <0>         0.0634
     49 H12       -14.2534    9.0516   25.1269 H       1  <0>         0.0700
     50 H13       -10.5940    2.7262   24.1695 H       1  <0>         0.0821
     51 H14       -12.3274    2.3764   24.0505 H       1  <0>         0.0821
     52 H15       -11.6775    4.6138   27.3654 H       1  <0>         0.0841
     53 H16       -10.1377    4.6168   26.4637 H       1  <0>         0.0841
     54 H17       -11.6020    4.4345   23.2897 H       1  <0>         0.0872
     55 H18       -10.5903    5.4149   24.4144 H       1  <0>         0.0872
     56 H19       -12.4381    1.4362   26.2106 H       1  <0>         0.0429
     57 H20       -12.7743    4.1795   25.6189 H       1  <0>         0.2038
@<TRIPOS>BOND
     1     1    29    1
     2     2     4   ar
     3     2    15   ar
     4     3     5   ar
     5     3    15   ar
     6     4    16   ar
     7     5    16   ar
     8     6    17   ar
     9     6    18   ar
    10     7    17   ar
    11     7    19   ar
    12     8    18   ar
    13     8    19   ar
    14     9    20    1
    15     9    21    2
    16    10    20    2
    17    10    35    1
    18    11    22    1
    19    11    28    1
    20    12    26    1
    21    12    28    1
    22    13    21    1
    23    13    28    1
    24    14    15    1
    25    14    27    3
    26    16    22    1
    27    17    30    1
    28    18    36    1
    29    19    37    1
    30    20    25    1
    31    21    35    1
    32    22    26    1
    33    23    26    1
    34    23    30   am
    35    23    32    2
    36    24    29   am
    37    24    30   am
    38    24    33    2
    39    25    31    1
    40    25    34    2
    41    26    29    1
    42     1    38    1
    43     1    39    1
    44     1    40    1
    45     2    41    1
    46     3    42    1
    47     4    43    1
    48     5    44    1
    49     6    45    1
    50     7    46    1
    51     8    47    1
    52     9    48    1
    53    10    49    1
    54    11    50    1
    55    11    51    1
    56    12    52    1
    57    12    53    1
    58    13    54    1
    59    13    55    1
    60    22    56    1
    61    28    57    1
@<TRIPOS>SUBSTRUCTURE
     1 <0>         1 TEMP              0 ****  ****    0 ROOT

