
##########                                Name:          2IC_1_2ICA
##########                    Molecular_Weight:             484.535
##########                DOCK_Rotatable_Bonds:                   5
##########                       Formal_Charge:         9.96739e-05
##########                     HBond_Acceptors:                  11
##########                        HBond_Donors:                   1
##########                         Heavy_Atoms:                  37
##########                            HA_RMSDs:               0.462
##########                            HA_RMSDh:               0.462
##########                            HA_RMSDm:               0.462
##########                          Grid_Score:          -66.135193
##########                     Grid_vdw_energy:          -56.525173
##########                      Grid_es_energy:           -9.610023
##########           Internal_energy_repulsive:           15.400430

@<TRIPOS>MOLECULE
2IC_1_2ICA
 57 61 1 0 0
SMALL
USER_CHARGES


@<TRIPOS>ATOM
      1 C1        -12.7460    2.3078   28.8746 C.3     1  <0>         0.0059
      2 C2        -10.9678   -2.0807   26.5063 C.ar    1  <0>        -0.0441
      3 C3         -9.0049   -1.2447   25.3243 C.ar    1  <0>        -0.0441
      4 C4        -11.5257   -0.7924   26.4780 C.ar    1  <0>        -0.0568
      5 C5         -9.5582    0.0464   25.2985 C.ar    1  <0>        -0.0568
      6 C6         -7.6172    1.2534   30.3353 C.ar    1  <0>        -0.0214
      7 C7         -7.2697    0.2849   28.1266 C.ar    1  <0>        -0.0214
      8 C8         -5.6430   -0.1329   29.9219 C.ar    1  <0>        -0.0249
      9 C9        -13.5577    6.1192   23.5350 C.2     1  <0>        -0.0376
     10 C10       -13.5953    8.0680   24.8520 C.2     1  <0>        -0.0150
     11 C11       -11.4717    2.5465   24.8348 C.3     1  <0>        -0.0218
     12 C12       -11.0960    3.9791   26.6769 C.3     1  <0>         0.0001
     13 C13       -11.4988    4.7908   24.2833 C.3     1  <0>         0.0005
     14 C14        -9.1795   -3.6218   25.8861 C.1     1  <0>         0.0992
     15 C15        -9.7124   -2.2985   25.9221 C.ar    1  <0>         0.0518
     16 C16       -10.8144    0.2957   25.9208 C.ar    1  <0>        -0.0365
     17 C17        -8.0477    1.0841   29.0066 C.ar    1  <0>         0.0482
     18 C18        -6.4403    0.6343   30.7727 C.ar    1  <0>         0.0441
     19 C19        -6.0825   -0.2931   28.6042 C.ar    1  <0>         0.0441
     20 C20       -14.2101    7.3909   23.8728 C.2     1  <0>         0.0048
     21 C21       -12.4532    5.9412   24.2820 C.2     1  <0>         0.0348
     22 C22       -11.4150    1.6669   26.0609 C.3     1  <0>         0.0593
     23 C23        -9.3528    2.2704   27.3791 C.2     1  <0>         0.2572
     24 C24       -10.3972    1.6096   29.2484 C.2     1  <0>         0.3164
     25 C25       -15.4179    7.9152   23.1943 C.2     1  <0>         0.0722
     26 C26       -10.8500    2.5470   27.1727 C.3     1  <0>         0.1667
     27 N1         -8.7651   -4.7015   25.8222 N.1     1  <0>        -0.1909
     28 N2        -11.7956    3.8563   25.3728 N.4     1  <0>         0.2413
     29 N3        -11.3395    2.1850   28.4926 N.am    1  <0>        -0.2684
     30 N4         -9.2084    1.6568   28.5837 N.am    1  <0>        -0.1920
     31 O1        -15.8930    9.0096   23.5673 O.co2   1  <0>        -0.5446
     32 O2         -8.4862    2.5721   26.5592 O.2     1  <0>        -0.2722
     33 O3        -10.6069    1.1153   30.3542 O.2     1  <0>        -0.2516
     34 O4        -15.9103    7.2492   22.2584 O.co2   1  <0>        -0.5446
     35 S1        -12.0700    7.3258   25.2763 S.3     1  <0>        -0.0957
     36 CL1        -5.9745    0.7921   32.4173 CL      1  <0>        -0.0834
     37 CL2        -5.1250   -1.2648   27.5424 CL      1  <0>        -0.0834
     38 H1        -13.3005    2.8197   28.0744 H       1  <0>         0.0429
     39 H2        -13.1717    1.3059   29.0325 H       1  <0>         0.0429
     40 H3        -12.8236    2.8900   29.8047 H       1  <0>         0.0429
     41 H4        -11.5008   -2.8957   26.9736 H       1  <0>         0.0630
     42 H5         -8.0355   -1.4260   24.8841 H       1  <0>         0.0630
     43 H6        -12.5118   -0.6301   26.8874 H       1  <0>         0.0621
     44 H7         -9.0305    0.8501   24.8064 H       1  <0>         0.0621
     45 H8         -8.1942    1.8605   31.0172 H       1  <0>         0.0651
     46 H9         -7.5865    0.1244   27.1067 H       1  <0>         0.0651
     47 H10        -4.7246   -0.5843   30.2672 H       1  <0>         0.0647
     48 H11       -13.9151    5.4234   22.7904 H       1  <0>         0.0634
     49 H12       -13.9910    8.9577   25.3191 H       1  <0>         0.0700
     50 H13       -10.5104    2.5562   24.3002 H       1  <0>         0.0821
     51 H14       -12.2380    2.2010   24.1253 H       1  <0>         0.0821
     52 H15       -11.7157    4.5349   27.3959 H       1  <0>         0.0841
     53 H16       -10.1425    4.5136   26.5540 H       1  <0>         0.0841
     54 H17       -11.5820    4.2580   23.3245 H       1  <0>         0.0872
     55 H18       -10.4767    5.1761   24.4131 H       1  <0>         0.0872
     56 H19       -12.4310    1.3240   26.3061 H       1  <0>         0.0429
     57 H20       -12.7448    4.0484   25.6222 H       1  <0>         0.2038
@<TRIPOS>BOND
     1     1    29    1
     2     2     4   ar
     3     2    15   ar
     4     3     5   ar
     5     3    15   ar
     6     4    16   ar
     7     5    16   ar
     8     6    17   ar
     9     6    18   ar
    10     7    17   ar
    11     7    19   ar
    12     8    18   ar
    13     8    19   ar
    14     9    20    1
    15     9    21    2
    16    10    20    2
    17    10    35    1
    18    11    22    1
    19    11    28    1
    20    12    26    1
    21    12    28    1
    22    13    21    1
    23    13    28    1
    24    14    15    1
    25    14    27    3
    26    16    22    1
    27    17    30    1
    28    18    36    1
    29    19    37    1
    30    20    25    1
    31    21    35    1
    32    22    26    1
    33    23    26    1
    34    23    30   am
    35    23    32    2
    36    24    29   am
    37    24    30   am
    38    24    33    2
    39    25    31    1
    40    25    34    2
    41    26    29    1
    42     1    38    1
    43     1    39    1
    44     1    40    1
    45     2    41    1
    46     3    42    1
    47     4    43    1
    48     5    44    1
    49     6    45    1
    50     7    46    1
    51     8    47    1
    52     9    48    1
    53    10    49    1
    54    11    50    1
    55    11    51    1
    56    12    52    1
    57    12    53    1
    58    13    54    1
    59    13    55    1
    60    22    56    1
    61    28    57    1
@<TRIPOS>SUBSTRUCTURE
     1 <0>         1 TEMP              0 ****  ****    0 ROOT

