
##########                                Name:        19A_360_2OJG
##########                    Molecular_Weight:             280.329
##########                DOCK_Rotatable_Bonds:                   4
##########                       Formal_Charge:        -1.19209e-07
##########                     HBond_Acceptors:                   5
##########                        HBond_Donors:                   2
##########                         Heavy_Atoms:                  21
##########                            HA_RMSDs:               0.829
##########                            HA_RMSDh:               0.829
##########                            HA_RMSDm:               0.748
##########                          Grid_Score:          -42.515373
##########                     Grid_vdw_energy:          -41.786552
##########                      Grid_es_energy:           -0.728819
##########           Internal_energy_repulsive:           16.597565

@<TRIPOS>MOLECULE
19A_360_2OJG
 37 39 1 0 0
SMALL
USER_CHARGES


@<TRIPOS>ATOM
      1 C1         -9.1557   13.9601   42.2300 C.3     1  <0>         0.0032
      2 C2        -11.5295   14.7484   42.4813 C.3     1  <0>         0.0032
      3 C3        -15.2234   16.3404   44.4540 C.ar    1  <0>        -0.0617
      4 C4        -14.7995   16.2129   43.1125 C.ar    1  <0>        -0.0612
      5 C5        -16.1432   15.4109   45.0143 C.ar    1  <0>        -0.0612
      6 C6        -15.3016   15.1577   42.3196 C.ar    1  <0>        -0.0539
      7 C7        -16.6405   14.3640   44.2339 C.ar    1  <0>        -0.0539
      8 C8        -13.5754   12.5994   41.4623 C.2     1  <0>        -0.0253
      9 C9        -14.1689   11.5582   39.5922 C.2     1  <0>         0.0030
     10 C10       -18.1229   12.6958   42.1104 C.2     1  <0>         0.0551
     11 C11       -16.2255   14.2176   42.8723 C.ar    1  <0>        -0.0145
     12 C12       -14.6778   12.1122   40.7454 C.2     1  <0>         0.0138
     13 C13       -12.4172   12.3489   40.7527 C.2     1  <0>         0.0943
     14 C14       -16.7989   13.0735   42.0765 C.2     1  <0>         0.0248
     15 C15       -16.1362   12.1695   41.1612 C.2     1  <0>         0.0658
     16 C16       -10.9807   12.6821   41.1332 C.2     1  <0>         0.2602
     17 N1        -12.8129   11.6990   39.5984 N.pl3   1  <0>        -0.3159
     18 N2        -17.0616   11.3288   40.7182 N.pl3   1  <0>        -0.2365
     19 N3        -18.2855   11.6478   41.2971 N.2     1  <0>        -0.1898
     20 N4        -10.5866   13.7702   41.9257 N.am    1  <0>        -0.3026
     21 O1        -10.1093   11.9331   40.7113 O.2     1  <0>        -0.2686
     22 H1         -8.5696   13.1604   41.7534 H       1  <0>         0.0428
     23 H2         -8.8255   14.9360   41.8447 H       1  <0>         0.0428
     24 H3         -9.0049   13.9256   43.3192 H       1  <0>         0.0428
     25 H4        -12.5532   14.4856   42.1766 H       1  <0>         0.0428
     26 H5        -11.4605   14.7413   43.5791 H       1  <0>         0.0428
     27 H6        -11.2811   15.7516   42.1047 H       1  <0>         0.0428
     28 H7        -14.8459   17.1509   45.0598 H       1  <0>         0.0618
     29 H8        -14.0956   16.9182   42.6959 H       1  <0>         0.0618
     30 H9        -16.4570   15.5145   46.0425 H       1  <0>         0.0618
     31 H10       -14.9861   15.0605   41.2913 H       1  <0>         0.0624
     32 H11       -17.3414   13.6618   44.6604 H       1  <0>         0.0624
     33 H12       -13.6245   13.0941   42.4210 H       1  <0>         0.0645
     34 H13       -14.7487   11.0891   38.8110 H       1  <0>         0.0788
     35 H14       -18.8989   13.1670   42.6955 H       1  <0>         0.0852
     36 H15       -12.1977   11.3804   38.8772 H       1  <0>         0.1518
     37 H16       -16.9043   10.5833   40.0705 H       1  <0>         0.1744
@<TRIPOS>BOND
     1     1    20    1
     2     2    20    1
     3     3     4   ar
     4     3     5   ar
     5     4     6   ar
     6     5     7   ar
     7     6    11   ar
     8     7    11   ar
     9     8    12    1
    10     8    13    2
    11     9    12    2
    12     9    17    1
    13    10    14    1
    14    10    19    2
    15    11    14    1
    16    12    15    1
    17    13    16    1
    18    13    17    1
    19    14    15    2
    20    15    18    1
    21    16    20   am
    22    16    21    2
    23    18    19    1
    24     1    22    1
    25     1    23    1
    26     1    24    1
    27     2    25    1
    28     2    26    1
    29     2    27    1
    30     3    28    1
    31     4    29    1
    32     5    30    1
    33     6    31    1
    34     7    32    1
    35     8    33    1
    36     9    34    1
    37    10    35    1
    38    17    36    1
    39    18    37    1
@<TRIPOS>SUBSTRUCTURE
     1 <0>         1 TEMP              0 ****  ****    0 ROOT

