
##########                                Name:        19A_360_2OJG
##########                    Molecular_Weight:             280.329
##########                DOCK_Rotatable_Bonds:                   4
##########                       Formal_Charge:        -1.19209e-07
##########                     HBond_Acceptors:                   5
##########                        HBond_Donors:                   2
##########                         Heavy_Atoms:                  21
##########                            HA_RMSDs:               5.566
##########                            HA_RMSDh:               5.050
##########                            HA_RMSDm:               4.702
##########                          Grid_Score:          -47.276077
##########                     Grid_vdw_energy:          -45.757141
##########                      Grid_es_energy:           -1.518936
##########           Internal_energy_repulsive:           12.032593

@<TRIPOS>MOLECULE
19A_360_2OJG
 37 39 1 0 0
SMALL
USER_CHARGES


@<TRIPOS>ATOM
      1 C1        -12.3151   18.9653   45.4339 C.3     1  <0>         0.0032
      2 C2        -11.8784   16.5277   45.0015 C.3     1  <0>         0.0032
      3 C3         -9.4131   13.9760   41.7032 C.ar    1  <0>        -0.0617
      4 C4        -10.2754   13.9223   42.8207 C.ar    1  <0>        -0.0612
      5 C5         -9.8823   13.6187   40.4086 C.ar    1  <0>        -0.0612
      6 C6        -11.6126   13.5010   42.6504 C.ar    1  <0>        -0.0539
      7 C7        -11.2051   13.2036   40.2353 C.ar    1  <0>        -0.0539
      8 C8        -14.0552   15.4248   42.8448 C.2     1  <0>        -0.0253
      9 C9        -16.1668   14.7895   43.1118 C.2     1  <0>         0.0030
     10 C10       -13.8440   11.5951   40.3297 C.2     1  <0>         0.0551
     11 C11       -12.0948   13.1403   41.3542 C.ar    1  <0>        -0.0145
     12 C12       -14.9880   14.4385   42.4928 C.2     1  <0>         0.0138
     13 C13       -14.6578   16.3562   43.6677 C.2     1  <0>         0.0943
     14 C14       -13.5087   12.6799   41.1093 C.2     1  <0>         0.0248
     15 C15       -14.7522   13.2350   41.5990 C.2     1  <0>         0.0658
     16 C16       -14.0504   17.6066   44.2896 C.2     1  <0>         0.2602
     17 N1        -15.9682   15.9406   43.8146 N.pl3   1  <0>        -0.3159
     18 N2        -15.7269   12.4856   41.1011 N.pl3   1  <0>        -0.2365
     19 N3        -15.1750   11.4749   40.3209 N.2     1  <0>        -0.1898
     20 N4        -12.7833   17.6778   44.8868 N.am    1  <0>        -0.3026
     21 O1        -14.7287   18.6250   44.2579 O.2     1  <0>        -0.2686
     22 H1        -13.0882   19.7326   45.2801 H       1  <0>         0.0428
     23 H2        -12.1165   18.8557   46.5102 H       1  <0>         0.0428
     24 H3        -11.3911   19.2679   44.9193 H       1  <0>         0.0428
     25 H4        -12.3529   15.6413   44.5554 H       1  <0>         0.0428
     26 H5        -10.9392   16.7462   44.4721 H       1  <0>         0.0428
     27 H6        -11.6646   16.3340   46.0630 H       1  <0>         0.0428
     28 H7         -8.3883   14.2913   41.8327 H       1  <0>         0.0618
     29 H8         -9.9144   14.2018   43.7995 H       1  <0>         0.0618
     30 H9         -9.2161   13.6682   39.5600 H       1  <0>         0.0618
     31 H10       -12.2735   13.4512   43.5031 H       1  <0>         0.0624
     32 H11       -11.5579   12.9293   39.2521 H       1  <0>         0.0624
     33 H12       -13.0249   15.4519   42.5222 H       1  <0>         0.0645
     34 H13       -17.0960   14.2426   43.0505 H       1  <0>         0.0788
     35 H14       -13.1486   10.9504   39.8127 H       1  <0>         0.0852
     36 H15       -16.6650   16.4129   44.3546 H       1  <0>         0.1518
     37 H16       -16.7041   12.6252   41.2613 H       1  <0>         0.1744
@<TRIPOS>BOND
     1     1    20    1
     2     2    20    1
     3     3     4   ar
     4     3     5   ar
     5     4     6   ar
     6     5     7   ar
     7     6    11   ar
     8     7    11   ar
     9     8    12    1
    10     8    13    2
    11     9    12    2
    12     9    17    1
    13    10    14    1
    14    10    19    2
    15    11    14    1
    16    12    15    1
    17    13    16    1
    18    13    17    1
    19    14    15    2
    20    15    18    1
    21    16    20   am
    22    16    21    2
    23    18    19    1
    24     1    22    1
    25     1    23    1
    26     1    24    1
    27     2    25    1
    28     2    26    1
    29     2    27    1
    30     3    28    1
    31     4    29    1
    32     5    30    1
    33     6    31    1
    34     7    32    1
    35     8    33    1
    36     9    34    1
    37    10    35    1
    38    17    36    1
    39    18    37    1
@<TRIPOS>SUBSTRUCTURE
     1 <0>         1 TEMP              0 ****  ****    0 ROOT

