
##########                                Name:        19A_360_2OJG
##########                    Molecular_Weight:             280.329
##########                DOCK_Rotatable_Bonds:                   4
##########                       Formal_Charge:        -1.19209e-07
##########                     HBond_Acceptors:                   5
##########                        HBond_Donors:                   2
##########                         Heavy_Atoms:                  21
##########                            HA_RMSDs:               1.067
##########                            HA_RMSDh:               1.067
##########                            HA_RMSDm:               0.994
##########                          Grid_Score:          -42.889320
##########                     Grid_vdw_energy:          -42.695965
##########                      Grid_es_energy:           -0.193356
##########           Internal_energy_repulsive:           12.838696

@<TRIPOS>MOLECULE
19A_360_2OJG
 37 39 1 0 0
SMALL
USER_CHARGES


@<TRIPOS>ATOM
      1 C1         -9.0516   14.3831   42.5244 C.3     1  <0>         0.0032
      2 C2        -11.4724   15.0579   42.5844 C.3     1  <0>         0.0032
      3 C3        -15.5114   16.3210   44.3322 C.ar    1  <0>        -0.0617
      4 C4        -14.9071   16.1993   43.0613 C.ar    1  <0>        -0.0612
      5 C5        -16.4563   15.3564   44.7803 C.ar    1  <0>        -0.0612
      6 C6        -15.2523   15.1143   42.2258 C.ar    1  <0>        -0.0539
      7 C7        -16.7988   14.2801   43.9577 C.ar    1  <0>        -0.0539
      8 C8        -13.3125   12.7277   41.4312 C.2     1  <0>        -0.0253
      9 C9        -13.7205   11.8477   39.4331 C.2     1  <0>         0.0030
     10 C10       -17.8918   12.4571   41.7685 C.2     1  <0>         0.0551
     11 C11       -16.1998   14.1390   42.6659 C.ar    1  <0>        -0.0145
     12 C12       -14.3328   12.2392   40.6026 C.2     1  <0>         0.0138
     13 C13       -12.1016   12.6381   40.7728 C.2     1  <0>         0.0943
     14 C14       -16.6114   12.9620   41.8195 C.2     1  <0>         0.0248
     15 C15       -15.8115   12.1462   40.9314 C.2     1  <0>         0.0658
     16 C16       -10.7184   13.0335   41.2726 C.2     1  <0>         0.2602
     17 N1        -12.3822   12.0856   39.5369 N.pl3   1  <0>        -0.3159
     18 N2        -16.6229   11.2294   40.4209 N.pl3   1  <0>        -0.2365
     19 N3        -17.9036   11.4159   40.9306 N.2     1  <0>        -0.1898
     20 N4        -10.4422   14.1303   42.1020 N.am    1  <0>        -0.3026
     21 O1         -9.7811   12.3301   40.9189 O.2     1  <0>        -0.2686
     22 H1         -8.3915   13.6165   42.0925 H       1  <0>         0.0428
     23 H2         -8.7371   15.3772   42.1741 H       1  <0>         0.0428
     24 H3         -8.9892   14.3443   43.6220 H       1  <0>         0.0428
     25 H4        -12.4543   14.7512   42.1947 H       1  <0>         0.0428
     26 H5        -11.4935   15.0426   43.6841 H       1  <0>         0.0428
     27 H6        -11.2415   16.0755   42.2362 H       1  <0>         0.0428
     28 H7        -15.2539   17.1540   44.9697 H       1  <0>         0.0618
     29 H8        -14.1853   16.9315   42.7305 H       1  <0>         0.0618
     30 H9        -16.9087   15.4561   45.7559 H       1  <0>         0.0618
     31 H10       -14.7984   15.0212   41.2502 H       1  <0>         0.0624
     32 H11       -17.5191   13.5512   44.2986 H       1  <0>         0.0624
     33 H12       -13.4519   13.1143   42.4299 H       1  <0>         0.0645
     34 H13       -14.2187   11.4220   38.5746 H       1  <0>         0.0788
     35 H14       -18.7427   12.8384   42.3134 H       1  <0>         0.0852
     36 H15       -11.7059   11.8901   38.8267 H       1  <0>         0.1518
     37 H16       -16.3561   10.5166   39.7722 H       1  <0>         0.1744
@<TRIPOS>BOND
     1     1    20    1
     2     2    20    1
     3     3     4   ar
     4     3     5   ar
     5     4     6   ar
     6     5     7   ar
     7     6    11   ar
     8     7    11   ar
     9     8    12    1
    10     8    13    2
    11     9    12    2
    12     9    17    1
    13    10    14    1
    14    10    19    2
    15    11    14    1
    16    12    15    1
    17    13    16    1
    18    13    17    1
    19    14    15    2
    20    15    18    1
    21    16    20   am
    22    16    21    2
    23    18    19    1
    24     1    22    1
    25     1    23    1
    26     1    24    1
    27     2    25    1
    28     2    26    1
    29     2    27    1
    30     3    28    1
    31     4    29    1
    32     5    30    1
    33     6    31    1
    34     7    32    1
    35     8    33    1
    36     9    34    1
    37    10    35    1
    38    17    36    1
    39    18    37    1
@<TRIPOS>SUBSTRUCTURE
     1 <0>         1 TEMP              0 ****  ****    0 ROOT

