
##########                                Name:        19A_360_2OJG
##########                    Molecular_Weight:             280.329
##########                DOCK_Rotatable_Bonds:                   4
##########                       Formal_Charge:        -1.19209e-07
##########                     HBond_Acceptors:                   5
##########                        HBond_Donors:                   2
##########                         Heavy_Atoms:                  21
##########                            HA_RMSDs:               1.054
##########                            HA_RMSDh:               1.054
##########                            HA_RMSDm:               1.004
##########                          Grid_Score:          -45.727516
##########                     Grid_vdw_energy:          -45.390816
##########                      Grid_es_energy:           -0.336699
##########           Internal_energy_repulsive:           12.644389

@<TRIPOS>MOLECULE
19A_360_2OJG
 37 39 1 0 0
SMALL
USER_CHARGES


@<TRIPOS>ATOM
      1 C1         -8.5300   14.0245   41.8837 C.3     1  <0>         0.0032
      2 C2        -10.8883   14.4991   42.6133 C.3     1  <0>         0.0032
      3 C3        -15.2610   16.3917   44.1166 C.ar    1  <0>        -0.0617
      4 C4        -14.6577   16.1500   42.8624 C.ar    1  <0>        -0.0612
      5 C5        -16.1644   15.4478   44.6796 C.ar    1  <0>        -0.0612
      6 C6        -14.9626   14.9642   42.1586 C.ar    1  <0>        -0.0539
      7 C7        -16.4668   14.2722   43.9877 C.ar    1  <0>        -0.0539
      8 C8        -12.9259   12.5164   41.2024 C.2     1  <0>        -0.0253
      9 C9        -13.7254   12.1887   39.1562 C.2     1  <0>         0.0030
     10 C10       -17.4257   12.0590   42.1956 C.2     1  <0>         0.0551
     11 C11       -15.8682   14.0086   42.7150 C.ar    1  <0>        -0.0145
     12 C12       -14.0916   12.2156   40.4833 C.2     1  <0>         0.0138
     13 C13       -11.8708   12.6738   40.3250 C.2     1  <0>         0.0943
     14 C14       -16.2357   12.7276   42.0115 C.2     1  <0>         0.0248
     15 C15       -15.4749   11.9573   41.0513 C.2     1  <0>         0.0658
     16 C16       -10.4154   12.9936   40.6390 C.2     1  <0>         0.2602
     17 N1        -12.3930   12.4618   39.0625 N.pl3   1  <0>        -0.3159
     18 N2        -16.2187   10.9072   40.7293 N.pl3   1  <0>        -0.2365
     19 N3        -17.4198   10.9646   41.4285 N.2     1  <0>        -0.1898
     20 N4         -9.9771   13.8180   41.6857 N.am    1  <0>        -0.3026
     21 O1         -9.5691   12.4835   39.9165 O.2     1  <0>        -0.2686
     22 H1         -7.9710   13.4592   41.1234 H       1  <0>         0.0428
     23 H2         -8.2963   15.0952   41.7896 H       1  <0>         0.0428
     24 H3         -8.2433   13.6731   42.8859 H       1  <0>         0.0428
     25 H4        -11.9285   14.2574   42.3500 H       1  <0>         0.0428
     26 H5        -10.6830   14.1643   43.6408 H       1  <0>         0.0428
     27 H6        -10.7360   15.5863   42.5446 H       1  <0>         0.0428
     28 H7        -15.0344   17.3013   44.6530 H       1  <0>         0.0618
     29 H8        -13.9674   16.8677   42.4442 H       1  <0>         0.0618
     30 H9        -16.6162   15.6400   45.6415 H       1  <0>         0.0618
     31 H10       -14.5096   14.7785   41.1959 H       1  <0>         0.0624
     32 H11       -17.1557   13.5590   44.4156 H       1  <0>         0.0624
     33 H12       -12.8628   12.6104   42.2764 H       1  <0>         0.0645
     34 H13       -14.3853   11.9847   38.3260 H       1  <0>         0.0788
     35 H14       -18.2282   12.3670   42.8495 H       1  <0>         0.0852
     36 H15       -11.8723   12.5025   38.2097 H       1  <0>         0.1518
     37 H16       -15.9572   10.1879   40.0857 H       1  <0>         0.1744
@<TRIPOS>BOND
     1     1    20    1
     2     2    20    1
     3     3     4   ar
     4     3     5   ar
     5     4     6   ar
     6     5     7   ar
     7     6    11   ar
     8     7    11   ar
     9     8    12    1
    10     8    13    2
    11     9    12    2
    12     9    17    1
    13    10    14    1
    14    10    19    2
    15    11    14    1
    16    12    15    1
    17    13    16    1
    18    13    17    1
    19    14    15    2
    20    15    18    1
    21    16    20   am
    22    16    21    2
    23    18    19    1
    24     1    22    1
    25     1    23    1
    26     1    24    1
    27     2    25    1
    28     2    26    1
    29     2    27    1
    30     3    28    1
    31     4    29    1
    32     5    30    1
    33     6    31    1
    34     7    32    1
    35     8    33    1
    36     9    34    1
    37    10    35    1
    38    17    36    1
    39    18    37    1
@<TRIPOS>SUBSTRUCTURE
     1 <0>         1 TEMP              0 ****  ****    0 ROOT

