
##########                                Name:        19A_360_2OJG
##########                    Molecular_Weight:             280.329
##########                DOCK_Rotatable_Bonds:                   4
##########                       Formal_Charge:        -1.19209e-07
##########                     HBond_Acceptors:                   5
##########                        HBond_Donors:                   2
##########                         Heavy_Atoms:                  21
##########                            HA_RMSDs:               5.836
##########                            HA_RMSDh:               5.347
##########                            HA_RMSDm:               5.046
##########                          Grid_Score:          -42.581230
##########                     Grid_vdw_energy:          -40.657459
##########                      Grid_es_energy:           -1.923769
##########           Internal_energy_repulsive:           10.133702

@<TRIPOS>MOLECULE
19A_360_2OJG
 37 39 1 0 0
SMALL
USER_CHARGES


@<TRIPOS>ATOM
      1 C1        -11.9819   19.5475   45.3598 C.3     1  <0>         0.0032
      2 C2        -11.5948   17.0814   45.0633 C.3     1  <0>         0.0032
      3 C3         -8.9304   14.2992   42.2561 C.ar    1  <0>        -0.0617
      4 C4         -9.8288   14.0624   43.3202 C.ar    1  <0>        -0.0612
      5 C5         -9.3494   14.1411   40.9058 C.ar    1  <0>        -0.0612
      6 C6        -11.1518   13.6562   43.0387 C.ar    1  <0>        -0.0539
      7 C7        -10.6581   13.7418   40.6230 C.ar    1  <0>        -0.0539
      8 C8        -13.5934   15.9215   42.8255 C.2     1  <0>        -0.0253
      9 C9        -15.7595   15.4301   42.8085 C.2     1  <0>         0.0030
     10 C10       -13.2724   11.9289   40.5936 C.2     1  <0>         0.0551
     11 C11       -11.5837   13.4948   41.6859 C.ar    1  <0>        -0.0145
     12 C12       -14.5289   14.9678   42.3990 C.2     1  <0>         0.0138
     13 C13       -14.2461   16.9434   43.4870 C.2     1  <0>         0.0943
     14 C14       -12.9802   13.0608   41.3220 C.2     1  <0>         0.0248
     15 C15       -14.2462   13.6909   41.6291 C.2     1  <0>         0.0658
     16 C16       -13.6535   18.1985   44.1137 C.2     1  <0>         0.2602
     17 N1        -15.5890   16.6159   43.4592 N.pl3   1  <0>        -0.3159
     18 N2        -15.1906   12.9353   41.0845 N.pl3   1  <0>        -0.2365
     19 N3        -14.5985   11.8497   40.4475 N.2     1  <0>        -0.1898
     20 N4        -12.4441   18.2540   44.8218 N.am    1  <0>        -0.3026
     21 O1        -14.2895   19.2359   43.9805 O.2     1  <0>        -0.2686
     22 H1        -12.7102   20.3320   45.1061 H       1  <0>         0.0428
     23 H2        -11.8858   19.4764   46.4532 H       1  <0>         0.0428
     24 H3        -11.0049   19.7988   44.9212 H       1  <0>         0.0428
     25 H4        -12.0581   16.1928   44.6099 H       1  <0>         0.0428
     26 H5        -10.6043   17.2476   44.6147 H       1  <0>         0.0428
     27 H6        -11.4852   16.9252   46.1467 H       1  <0>         0.0428
     28 H7         -7.9163   14.6031   42.4696 H       1  <0>         0.0618
     29 H8         -9.5060   14.1912   44.3427 H       1  <0>         0.0618
     30 H9         -8.6560   14.3297   40.0995 H       1  <0>         0.0618
     31 H10       -11.8401   13.4667   43.8492 H       1  <0>         0.0624
     32 H11       -10.9727   13.6189   39.5971 H       1  <0>         0.0624
     33 H12       -12.5274   15.8657   42.6620 H       1  <0>         0.0645
     34 H13       -16.7046   14.9348   42.6416 H       1  <0>         0.0788
     35 H14       -12.5515   11.2243   40.2060 H       1  <0>         0.0852
     36 H15       -16.3241   17.1656   43.8563 H       1  <0>         0.1518
     37 H16       -16.1731   13.1173   41.1253 H       1  <0>         0.1744
@<TRIPOS>BOND
     1     1    20    1
     2     2    20    1
     3     3     4   ar
     4     3     5   ar
     5     4     6   ar
     6     5     7   ar
     7     6    11   ar
     8     7    11   ar
     9     8    12    1
    10     8    13    2
    11     9    12    2
    12     9    17    1
    13    10    14    1
    14    10    19    2
    15    11    14    1
    16    12    15    1
    17    13    16    1
    18    13    17    1
    19    14    15    2
    20    15    18    1
    21    16    20   am
    22    16    21    2
    23    18    19    1
    24     1    22    1
    25     1    23    1
    26     1    24    1
    27     2    25    1
    28     2    26    1
    29     2    27    1
    30     3    28    1
    31     4    29    1
    32     5    30    1
    33     6    31    1
    34     7    32    1
    35     8    33    1
    36     9    34    1
    37    10    35    1
    38    17    36    1
    39    18    37    1
@<TRIPOS>SUBSTRUCTURE
     1 <0>         1 TEMP              0 ****  ****    0 ROOT

