
##########                                Name:        19A_360_2OJG
##########                    Molecular_Weight:             280.329
##########                DOCK_Rotatable_Bonds:                   4
##########                       Formal_Charge:        -1.19209e-07
##########                     HBond_Acceptors:                   5
##########                        HBond_Donors:                   2
##########                         Heavy_Atoms:                  21
##########                            HA_RMSDs:               5.660
##########                            HA_RMSDh:               5.185
##########                            HA_RMSDm:               4.865
##########                          Grid_Score:          -42.879471
##########                     Grid_vdw_energy:          -40.907349
##########                      Grid_es_energy:           -1.972121
##########           Internal_energy_repulsive:           10.863929

@<TRIPOS>MOLECULE
19A_360_2OJG
 37 39 1 0 0
SMALL
USER_CHARGES


@<TRIPOS>ATOM
      1 C1        -11.8644   19.4554   44.9729 C.3     1  <0>         0.0032
      2 C2        -11.4661   17.0063   44.5701 C.3     1  <0>         0.0032
      3 C3         -9.2619   13.9436   41.9498 C.ar    1  <0>        -0.0617
      4 C4        -10.0675   13.7116   43.0867 C.ar    1  <0>        -0.0612
      5 C5         -9.8050   13.8228   40.6405 C.ar    1  <0>        -0.0612
      6 C6        -11.4217   13.3475   42.9195 C.ar    1  <0>        -0.0539
      7 C7        -11.1450   13.4653   40.4707 C.ar    1  <0>        -0.0539
      8 C8        -13.8246   15.7620   42.8262 C.2     1  <0>        -0.0253
      9 C9        -15.9599   15.2471   43.1564 C.2     1  <0>         0.0030
     10 C10       -13.8031   11.7139   40.6675 C.2     1  <0>         0.0551
     11 C11       -11.9781   13.2239   41.6087 C.ar    1  <0>        -0.0145
     12 C12       -14.8029   14.7919   42.5648 C.2     1  <0>         0.0138
     13 C13       -14.3785   16.7867   43.5684 C.2     1  <0>         0.0943
     14 C14       -13.4137   12.8355   41.3656 C.2     1  <0>         0.0248
     15 C15       -14.6281   13.5066   41.7771 C.2     1  <0>         0.0658
     16 C16       -13.7112   18.0575   44.0774 C.2     1  <0>         0.2602
     17 N1        -15.7048   16.4444   43.7564 N.pl3   1  <0>        -0.3159
     18 N2        -15.6392   12.7821   41.3164 N.pl3   1  <0>        -0.2365
     19 N3        -15.1387   11.6780   40.6344 N.2     1  <0>        -0.1898
     20 N4        -12.3847   18.1502   44.5235 N.am    1  <0>        -0.3026
     21 O1        -14.3945   19.0730   44.0914 O.2     1  <0>        -0.2686
     22 H1        -12.6544   20.2158   44.8845 H       1  <0>         0.0428
     23 H2        -11.5438   19.3805   46.0225 H       1  <0>         0.0428
     24 H3        -11.0069   19.7434   44.3470 H       1  <0>         0.0428
     25 H4        -11.9834   16.1051   44.2091 H       1  <0>         0.0428
     26 H5        -10.5947   17.2097   43.9304 H       1  <0>         0.0428
     27 H6        -11.1315   16.8468   45.6058 H       1  <0>         0.0428
     28 H7         -8.2242   14.2153   42.0757 H       1  <0>         0.0618
     29 H8         -9.6504   13.8120   44.0779 H       1  <0>         0.0618
     30 H9         -9.1817   14.0074   39.7780 H       1  <0>         0.0618
     31 H10       -12.0396   13.1618   43.7856 H       1  <0>         0.0624
     32 H11       -11.5540   13.3706   39.4756 H       1  <0>         0.0624
     33 H12       -12.7968   15.7151   42.4979 H       1  <0>         0.0645
     34 H13       -16.9129   14.7392   43.1467 H       1  <0>         0.0788
     35 H14       -13.1409   10.9862   40.2221 H       1  <0>         0.0852
     36 H15       -16.3754   16.9922   44.2567 H       1  <0>         0.1518
     37 H16       -16.6083   12.9960   41.4398 H       1  <0>         0.1744
@<TRIPOS>BOND
     1     1    20    1
     2     2    20    1
     3     3     4   ar
     4     3     5   ar
     5     4     6   ar
     6     5     7   ar
     7     6    11   ar
     8     7    11   ar
     9     8    12    1
    10     8    13    2
    11     9    12    2
    12     9    17    1
    13    10    14    1
    14    10    19    2
    15    11    14    1
    16    12    15    1
    17    13    16    1
    18    13    17    1
    19    14    15    2
    20    15    18    1
    21    16    20   am
    22    16    21    2
    23    18    19    1
    24     1    22    1
    25     1    23    1
    26     1    24    1
    27     2    25    1
    28     2    26    1
    29     2    27    1
    30     3    28    1
    31     4    29    1
    32     5    30    1
    33     6    31    1
    34     7    32    1
    35     8    33    1
    36     9    34    1
    37    10    35    1
    38    17    36    1
    39    18    37    1
@<TRIPOS>SUBSTRUCTURE
     1 <0>         1 TEMP              0 ****  ****    0 ROOT

