
##########                                Name:        19A_360_2OJG
##########                    Molecular_Weight:             280.329
##########                DOCK_Rotatable_Bonds:                   4
##########                       Formal_Charge:        -1.19209e-07
##########                     HBond_Acceptors:                   5
##########                        HBond_Donors:                   2
##########                         Heavy_Atoms:                  21
##########                            HA_RMSDs:               3.444
##########                            HA_RMSDh:               3.339
##########                            HA_RMSDm:               2.797
##########                          Grid_Score:          -45.236160
##########                     Grid_vdw_energy:          -46.474857
##########                      Grid_es_energy:            1.238696
##########           Internal_energy_repulsive:           20.245455

@<TRIPOS>MOLECULE
19A_360_2OJG
 37 39 1 0 0
SMALL
USER_CHARGES


@<TRIPOS>ATOM
      1 C1        -11.1196   17.2604   45.0914 C.3     1  <0>         0.0032
      2 C2        -13.1735   16.7024   43.7538 C.3     1  <0>         0.0032
      3 C3        -17.3669   14.7372   44.2969 C.ar    1  <0>        -0.0617
      4 C4        -16.4924   15.3735   43.3881 C.ar    1  <0>        -0.0612
      5 C5        -17.6359   13.3445   44.1886 C.ar    1  <0>        -0.0612
      6 C6        -15.8879   14.6200   42.3580 C.ar    1  <0>        -0.0539
      7 C7        -17.0380   12.5949   43.1723 C.ar    1  <0>        -0.0539
      8 C8        -12.8855   13.9225   42.3104 C.2     1  <0>        -0.0253
      9 C9        -11.6624   12.9602   40.7256 C.2     1  <0>         0.0030
     10 C10       -16.2489   11.4735   40.3863 C.2     1  <0>         0.0551
     11 C11       -16.1505   13.2200   42.2401 C.ar    1  <0>        -0.0145
     12 C12       -12.9419   13.0308   41.2295 C.2     1  <0>         0.0138
     13 C13       -11.5935   14.3885   42.4565 C.2     1  <0>         0.0943
     14 C14       -15.5391   12.3638   41.1612 C.2     1  <0>         0.0248
     15 C15       -14.1618   12.2826   40.7245 C.2     1  <0>         0.0658
     16 C16       -11.0473   15.3610   43.4934 C.2     1  <0>         0.2602
     17 N1        -10.8542   13.7733   41.4632 N.pl3   1  <0>        -0.3159
     18 N2        -14.1218   11.3794   39.7538 N.pl3   1  <0>        -0.2365
     19 N3        -15.4020   10.8792   39.5403 N.2     1  <0>        -0.1898
     20 N4        -11.7745   16.4050   44.0837 N.am    1  <0>        -0.3026
     21 O1         -9.8814   15.2088   43.8336 O.2     1  <0>        -0.2686
     22 H1        -10.0820   16.9260   45.2384 H       1  <0>         0.0428
     23 H2        -11.1225   18.3040   44.7439 H       1  <0>         0.0428
     24 H3        -11.6660   17.1892   46.0435 H       1  <0>         0.0428
     25 H4        -13.5309   15.9913   42.9944 H       1  <0>         0.0428
     26 H5        -13.7909   16.6121   44.6597 H       1  <0>         0.0428
     27 H6        -13.2475   17.7269   43.3602 H       1  <0>         0.0428
     28 H7        -17.8355   15.3133   45.0811 H       1  <0>         0.0618
     29 H8        -16.2873   16.4299   43.4806 H       1  <0>         0.0618
     30 H9        -18.3021   12.8668   44.8917 H       1  <0>         0.0618
     31 H10       -15.2245   15.1037   41.6562 H       1  <0>         0.0624
     32 H11       -17.2467   11.5384   43.0899 H       1  <0>         0.0624
     33 H12       -13.7230   14.2016   42.9326 H       1  <0>         0.0645
     34 H13       -11.3505   12.3594   39.8841 H       1  <0>         0.0788
     35 H14       -17.3107   11.2871   40.4514 H       1  <0>         0.0852
     36 H15        -9.8749   13.9049   41.3093 H       1  <0>         0.1518
     37 H16       -13.3010   11.1020   39.2545 H       1  <0>         0.1744
@<TRIPOS>BOND
     1     1    20    1
     2     2    20    1
     3     3     4   ar
     4     3     5   ar
     5     4     6   ar
     6     5     7   ar
     7     6    11   ar
     8     7    11   ar
     9     8    12    1
    10     8    13    2
    11     9    12    2
    12     9    17    1
    13    10    14    1
    14    10    19    2
    15    11    14    1
    16    12    15    1
    17    13    16    1
    18    13    17    1
    19    14    15    2
    20    15    18    1
    21    16    20   am
    22    16    21    2
    23    18    19    1
    24     1    22    1
    25     1    23    1
    26     1    24    1
    27     2    25    1
    28     2    26    1
    29     2    27    1
    30     3    28    1
    31     4    29    1
    32     5    30    1
    33     6    31    1
    34     7    32    1
    35     8    33    1
    36     9    34    1
    37    10    35    1
    38    17    36    1
    39    18    37    1
@<TRIPOS>SUBSTRUCTURE
     1 <0>         1 TEMP              0 ****  ****    0 ROOT

