
##########                                Name:        19A_360_2OJG
##########                    Molecular_Weight:             280.329
##########                DOCK_Rotatable_Bonds:                   4
##########                       Formal_Charge:        -1.19209e-07
##########                     HBond_Acceptors:                   5
##########                        HBond_Donors:                   2
##########                         Heavy_Atoms:                  21
##########                            HA_RMSDs:               5.546
##########                            HA_RMSDh:               5.081
##########                            HA_RMSDm:               4.733
##########                          Grid_Score:          -44.980019
##########                     Grid_vdw_energy:          -43.146080
##########                      Grid_es_energy:           -1.833939
##########           Internal_energy_repulsive:            8.719423

@<TRIPOS>MOLECULE
19A_360_2OJG
 37 39 1 0 0
SMALL
USER_CHARGES


@<TRIPOS>ATOM
      1 C1        -11.6310   19.1481   44.8793 C.3     1  <0>         0.0032
      2 C2        -11.2609   16.7082   44.4006 C.3     1  <0>         0.0032
      3 C3         -9.3520   13.8581   41.1140 C.ar    1  <0>        -0.0617
      4 C4        -10.0289   13.6409   42.3346 C.ar    1  <0>        -0.0612
      5 C5        -10.0341   13.7207   39.8731 C.ar    1  <0>        -0.0612
      6 C6        -11.3929   13.2752   42.3204 C.ar    1  <0>        -0.0539
      7 C7        -11.3843   13.3615   39.8547 C.ar    1  <0>        -0.0539
      8 C8        -13.7942   15.5662   42.6965 C.2     1  <0>        -0.0253
      9 C9        -15.8094   14.9156   43.3669 C.2     1  <0>         0.0030
     10 C10       -14.0156   11.6790   40.2658 C.2     1  <0>         0.0551
     11 C11       -12.0884   13.1350   41.0796 C.ar    1  <0>        -0.0145
     12 C12       -14.7665   14.5682   42.5377 C.2     1  <0>         0.0138
     13 C13       -14.2387   16.5012   43.6109 C.2     1  <0>         0.0943
     14 C14       -13.5416   12.7441   40.9991 C.2     1  <0>         0.0248
     15 C15       -14.6927   13.3572   41.6261 C.2     1  <0>         0.0658
     16 C16       -13.5371   17.7634   44.0944 C.2     1  <0>         0.2602
     17 N1        -15.4927   16.0759   44.0087 N.pl3   1  <0>        -0.3159
     18 N2        -15.7529   12.6571   41.2449 N.pl3   1  <0>        -0.2365
     19 N3        -15.3432   11.6231   40.4095 N.2     1  <0>        -0.1898
     20 N4        -12.1815   17.8507   44.4438 N.am    1  <0>        -0.3026
     21 O1        -14.2185   18.7768   44.1782 O.2     1  <0>        -0.2686
     22 H1        -12.4260   19.9082   44.8639 H       1  <0>         0.0428
     23 H2        -11.2342   19.0536   45.9009 H       1  <0>         0.0428
     24 H3        -10.8219   19.4502   44.1980 H       1  <0>         0.0428
     25 H4        -11.8024   15.8130   44.0610 H       1  <0>         0.0428
     26 H5        -10.4389   16.9261   43.7029 H       1  <0>         0.0428
     27 H6        -10.8512   16.5294   45.4057 H       1  <0>         0.0428
     28 H7         -8.3070   14.1309   41.1227 H       1  <0>         0.0618
     29 H8         -9.5065   13.7538   43.2732 H       1  <0>         0.0618
     30 H9         -9.5085   13.8941   38.9457 H       1  <0>         0.0618
     31 H10       -11.9127   13.1008   43.2509 H       1  <0>         0.0624
     32 H11       -11.8990   13.2543   38.9113 H       1  <0>         0.0624
     33 H12       -12.8446   15.5988   42.1832 H       1  <0>         0.0645
     34 H13       -16.7274   14.3601   43.4889 H       1  <0>         0.0788
     35 H14       -13.4158   11.0029   39.6746 H       1  <0>         0.0852
     36 H15       -16.0786   16.5480   44.6673 H       1  <0>         0.1518
     37 H16       -16.6975   12.8432   41.5153 H       1  <0>         0.1744
@<TRIPOS>BOND
     1     1    20    1
     2     2    20    1
     3     3     4   ar
     4     3     5   ar
     5     4     6   ar
     6     5     7   ar
     7     6    11   ar
     8     7    11   ar
     9     8    12    1
    10     8    13    2
    11     9    12    2
    12     9    17    1
    13    10    14    1
    14    10    19    2
    15    11    14    1
    16    12    15    1
    17    13    16    1
    18    13    17    1
    19    14    15    2
    20    15    18    1
    21    16    20   am
    22    16    21    2
    23    18    19    1
    24     1    22    1
    25     1    23    1
    26     1    24    1
    27     2    25    1
    28     2    26    1
    29     2    27    1
    30     3    28    1
    31     4    29    1
    32     5    30    1
    33     6    31    1
    34     7    32    1
    35     8    33    1
    36     9    34    1
    37    10    35    1
    38    17    36    1
    39    18    37    1
@<TRIPOS>SUBSTRUCTURE
     1 <0>         1 TEMP              0 ****  ****    0 ROOT

