
##########                                Name:        19A_360_2OJG
##########                    Molecular_Weight:             280.329
##########                DOCK_Rotatable_Bonds:                   4
##########                       Formal_Charge:        -1.19209e-07
##########                     HBond_Acceptors:                   5
##########                        HBond_Donors:                   2
##########                         Heavy_Atoms:                  21
##########                            HA_RMSDs:               5.633
##########                            HA_RMSDh:               5.174
##########                            HA_RMSDm:               4.825
##########                          Grid_Score:          -47.712383
##########                     Grid_vdw_energy:          -45.878086
##########                      Grid_es_energy:           -1.834296
##########           Internal_energy_repulsive:           11.031713

@<TRIPOS>MOLECULE
19A_360_2OJG
 37 39 1 0 0
SMALL
USER_CHARGES


@<TRIPOS>ATOM
      1 C1        -11.9187   19.2669   45.2681 C.3     1  <0>         0.0032
      2 C2        -11.7298   16.7610   45.2074 C.3     1  <0>         0.0032
      3 C3         -9.3119   13.9576   41.6240 C.ar    1  <0>        -0.0617
      4 C4        -10.1270   14.0204   42.7760 C.ar    1  <0>        -0.0612
      5 C5         -9.8492   13.5263   40.3793 C.ar    1  <0>        -0.0612
      6 C6        -11.4851   13.6423   42.6910 C.ar    1  <0>        -0.0539
      7 C7        -11.1929   13.1538   40.2904 C.ar    1  <0>        -0.0539
      8 C8        -13.8354   15.6651   42.8503 C.2     1  <0>        -0.0253
      9 C9        -15.9737   15.1719   43.1940 C.2     1  <0>         0.0030
     10 C10       -13.8833   11.6614   40.6148 C.2     1  <0>         0.0551
     11 C11       -12.0356   13.2081   41.4456 C.ar    1  <0>        -0.0145
     12 C12       -14.8275   14.7097   42.5869 C.2     1  <0>         0.0138
     13 C13       -14.3704   16.6879   43.6088 C.2     1  <0>         0.0943
     14 C14       -13.4749   12.7889   41.2922 C.2     1  <0>         0.0248
     15 C15       -14.6751   13.4313   41.7833 C.2     1  <0>         0.0658
     16 C16       -13.6835   17.9449   44.1260 C.2     1  <0>         0.2602
     17 N1        -15.6990   16.3592   43.8050 N.pl3   1  <0>        -0.3159
     18 N2        -15.6974   12.6863   41.3843 N.pl3   1  <0>        -0.2365
     19 N3        -15.2172   11.5959   40.6664 N.2     1  <0>        -0.1898
     20 N4        -12.4795   17.9698   44.8449 N.am    1  <0>        -0.3026
     21 O1        -14.2324   19.0126   43.8873 O.2     1  <0>        -0.2686
     22 H1        -12.5790   20.0798   44.9314 H       1  <0>         0.0428
     23 H2        -11.8378   19.2910   46.3648 H       1  <0>         0.0428
     24 H3        -10.9210   19.3974   44.8237 H       1  <0>         0.0428
     25 H4        -12.2597   15.8736   44.8309 H       1  <0>         0.0428
     26 H5        -10.7255   16.8050   44.7610 H       1  <0>         0.0428
     27 H6        -11.6422   16.6985   46.3021 H       1  <0>         0.0428
     28 H7         -8.2714   14.2397   41.6887 H       1  <0>         0.0618
     29 H8         -9.7142   14.3555   43.7161 H       1  <0>         0.0618
     30 H9         -9.2186   13.4869   39.5034 H       1  <0>         0.0618
     31 H10       -12.1103   13.6815   43.5708 H       1  <0>         0.0624
     32 H11       -11.5975   12.8232   39.3452 H       1  <0>         0.0624
     33 H12       -12.8112   15.6098   42.5122 H       1  <0>         0.0645
     34 H13       -16.9327   14.6754   43.1872 H       1  <0>         0.0788
     35 H14       -13.2350   10.9501   40.1246 H       1  <0>         0.0852
     36 H15       -16.3585   16.9092   44.3175 H       1  <0>         0.1518
     37 H16       -16.6611   12.8782   41.5701 H       1  <0>         0.1744
@<TRIPOS>BOND
     1     1    20    1
     2     2    20    1
     3     3     4   ar
     4     3     5   ar
     5     4     6   ar
     6     5     7   ar
     7     6    11   ar
     8     7    11   ar
     9     8    12    1
    10     8    13    2
    11     9    12    2
    12     9    17    1
    13    10    14    1
    14    10    19    2
    15    11    14    1
    16    12    15    1
    17    13    16    1
    18    13    17    1
    19    14    15    2
    20    15    18    1
    21    16    20   am
    22    16    21    2
    23    18    19    1
    24     1    22    1
    25     1    23    1
    26     1    24    1
    27     2    25    1
    28     2    26    1
    29     2    27    1
    30     3    28    1
    31     4    29    1
    32     5    30    1
    33     6    31    1
    34     7    32    1
    35     8    33    1
    36     9    34    1
    37    10    35    1
    38    17    36    1
    39    18    37    1
@<TRIPOS>SUBSTRUCTURE
     1 <0>         1 TEMP              0 ****  ****    0 ROOT

