
##########                                Name:        PDS_901_2I0E
##########                    Molecular_Weight:             441.553
##########                DOCK_Rotatable_Bonds:                   6
##########                       Formal_Charge:              0.9995
##########                     HBond_Acceptors:                   6
##########                        HBond_Donors:                   3
##########                         Heavy_Atoms:                  33
##########                            HA_RMSDs:               5.815
##########                            HA_RMSDh:               5.418
##########                            HA_RMSDm:               4.434
##########                          Grid_Score:         -107.302246
##########                     Grid_vdw_energy:          -42.253059
##########                      Grid_es_energy:          -65.049187
##########           Internal_energy_repulsive:           17.636808

@<TRIPOS>MOLECULE
PDS_901_2I0E
 62 66 1 0 0
SMALL
USER_CHARGES


@<TRIPOS>ATOM
      1 C1         45.9515   53.3067   36.0893 C.3     1  <0>        -0.0259
      2 C2         41.5909   52.7801   36.0226 C.3     1  <0>        -0.0257
      3 C3         41.5907   52.5039   32.1738 C.3     1  <0>        -0.0433
      4 C4         40.4220   54.0635   30.7993 C.3     1  <0>        -0.0433
      5 C5         41.9706   57.7266   34.4215 C.ar    1  <0>        -0.0611
      6 C6         38.3455   57.2835   38.6359 C.ar    1  <0>        -0.0611
      7 C7         42.6055   57.4507   33.1794 C.ar    1  <0>        -0.0600
      8 C8         37.4043   56.8397   37.6366 C.ar    1  <0>        -0.0600
      9 C9         42.3707   57.0054   35.5941 C.ar    1  <0>        -0.0522
     10 C10        39.6350   56.6401   38.7493 C.ar    1  <0>        -0.0522
     11 C11        43.6268   56.4676   33.0652 C.ar    1  <0>        -0.0400
     12 C12        37.7224   55.7667   36.7448 C.ar    1  <0>        -0.0398
     13 C13        39.2998   53.9258   33.6517 C.3     1  <0>         0.0036
     14 C14        38.7802   53.4557   35.0400 C.3     1  <0>         0.0218
     15 C15        39.2638   52.7827   32.6213 C.3     1  <0>        -0.0309
     16 C16        45.0034   54.3596   35.6929 C.2     1  <0>         0.0136
     17 C17        40.7925   53.8448   36.6194 C.2     1  <0>         0.0163
     18 C18        43.4106   56.0024   35.5447 C.ar    1  <0>         0.0054
     19 C19        39.9865   55.5571   37.8727 C.ar    1  <0>         0.0057
     20 C20        44.0351   55.7401   34.2361 C.ar    1  <0>         0.0390
     21 C21        39.0063   55.1324   36.8613 C.ar    1  <0>         0.0416
     22 C22        44.0508   55.0981   36.4653 C.2     1  <0>         0.0135
     23 C23        41.1216   54.7380   37.6968 C.2     1  <0>         0.0137
     24 C24        43.7303   54.9487   37.9625 C.2     1  <0>         0.0590
     25 C25        42.4373   54.7892   38.4922 C.2     1  <0>         0.0590
     26 C26        44.7094   54.9249   38.9806 C.2     1  <0>         0.2519
     27 C27        42.4850   54.6849   39.9314 C.2     1  <0>         0.2519
     28 N1         44.9709   54.7541   34.3909 N.pl3   1  <0>        -0.3170
     29 N2         43.9050   54.7609   40.1689 N.am    1  <0>        -0.2483
     30 N3         39.5242   54.1148   36.1332 N.pl3   1  <0>        -0.3026
     31 N4         40.2845   52.7916   31.5507 N.4     1  <0>         0.2309
     32 O1         45.9128   55.0200   38.8933 O.2     1  <0>        -0.2697
     33 O2         41.5483   54.5503   40.7337 O.2     1  <0>        -0.2697
     34 H1         45.4703   52.3225   35.9890 H       1  <0>         0.0290
     35 H2         46.8385   53.3489   35.4400 H       1  <0>         0.0290
     36 H3         46.2549   53.4615   37.1352 H       1  <0>         0.0290
     37 H4         41.3933   51.8343   36.5484 H       1  <0>         0.0290
     38 H5         41.3231   52.6723   34.9612 H       1  <0>         0.0290
     39 H6         42.6585   53.0308   36.1080 H       1  <0>         0.0290
     40 H7         41.5275   51.5641   32.7419 H       1  <0>         0.0777
     41 H8         42.3572   52.4078   31.3906 H       1  <0>         0.0777
     42 H9         41.8616   53.3254   32.8533 H       1  <0>         0.0777
     43 H10        39.4641   54.3118   30.3190 H       1  <0>         0.0777
     44 H11        40.7043   54.8699   31.4923 H       1  <0>         0.0777
     45 H12        41.1999   53.9522   30.0295 H       1  <0>         0.0777
     46 H13        41.1929   58.4736   34.4810 H       1  <0>         0.0618
     47 H14        38.0868   58.0960   39.2987 H       1  <0>         0.0618
     48 H15        42.3047   58.0018   32.3006 H       1  <0>         0.0618
     49 H16        36.4429   57.3257   37.5603 H       1  <0>         0.0618
     50 H17        41.8845   57.2161   36.5351 H       1  <0>         0.0624
     51 H18        40.3383   56.9753   39.4972 H       1  <0>         0.0624
     52 H19        44.0901   56.2697   32.1099 H       1  <0>         0.0636
     53 H20        37.0121   55.4405   35.9995 H       1  <0>         0.0636
     54 H21        38.6615   54.7469   33.2933 H       1  <0>         0.0332
     55 H22        40.3377   54.2734   33.7602 H       1  <0>         0.0332
     56 H23        37.7139   53.7110   35.1282 H       1  <0>         0.0469
     57 H24        38.9137   52.3669   35.1220 H       1  <0>         0.0469
     58 H25        39.3973   51.8451   33.1808 H       1  <0>         0.0815
     59 H26        38.2826   52.8307   32.1265 H       1  <0>         0.0815
     60 H27        45.5427   54.3811   33.6603 H       1  <0>         0.1519
     61 H28        44.3021   54.7045   41.0850 H       1  <0>         0.1581
     62 H29        39.9847   52.1084   30.8848 H       1  <0>         0.2028
@<TRIPOS>BOND
     1     1    16    1
     2     2    17    1
     3     3    31    1
     4     4    31    1
     5     5     7   ar
     6     5     9   ar
     7     6     8   ar
     8     6    10   ar
     9     7    11   ar
    10     8    12   ar
    11     9    18   ar
    12    10    19   ar
    13    11    20   ar
    14    12    21   ar
    15    13    14    1
    16    13    15    1
    17    14    30    1
    18    15    31    1
    19    16    22    2
    20    16    28    1
    21    17    23    2
    22    17    30    1
    23    18    20   ar
    24    18    22    1
    25    19    21   ar
    26    19    23    1
    27    20    28    1
    28    21    30    1
    29    22    24    1
    30    23    25    1
    31    24    25    2
    32    24    26    1
    33    25    27    1
    34    26    29   am
    35    26    32    2
    36    27    29   am
    37    27    33    2
    38     1    34    1
    39     1    35    1
    40     1    36    1
    41     2    37    1
    42     2    38    1
    43     2    39    1
    44     3    40    1
    45     3    41    1
    46     3    42    1
    47     4    43    1
    48     4    44    1
    49     4    45    1
    50     5    46    1
    51     6    47    1
    52     7    48    1
    53     8    49    1
    54     9    50    1
    55    10    51    1
    56    11    52    1
    57    12    53    1
    58    13    54    1
    59    13    55    1
    60    14    56    1
    61    14    57    1
    62    15    58    1
    63    15    59    1
    64    28    60    1
    65    29    61    1
    66    31    62    1
@<TRIPOS>SUBSTRUCTURE
     1 <0>         1 TEMP              0 ****  ****    0 ROOT

