
##########                                Name:        PDS_901_2I0E
##########                    Molecular_Weight:             441.553
##########                DOCK_Rotatable_Bonds:                   6
##########                       Formal_Charge:              0.9995
##########                     HBond_Acceptors:                   6
##########                        HBond_Donors:                   3
##########                         Heavy_Atoms:                  33
##########                            HA_RMSDs:               1.125
##########                            HA_RMSDh:               1.125
##########                            HA_RMSDm:               1.021
##########                          Grid_Score:         -111.274078
##########                     Grid_vdw_energy:          -51.529716
##########                      Grid_es_energy:          -59.744358
##########           Internal_energy_repulsive:           22.943186

@<TRIPOS>MOLECULE
PDS_901_2I0E
 62 66 1 0 0
SMALL
USER_CHARGES


@<TRIPOS>ATOM
      1 C1         40.9565   55.4695   39.3047 C.3     1  <0>        -0.0259
      2 C2         39.2558   53.6158   35.4645 C.3     1  <0>        -0.0257
      3 C3         43.0708   53.2275   33.8722 C.3     1  <0>        -0.0433
      4 C4         43.2901   54.4566   31.8402 C.3     1  <0>        -0.0433
      5 C5         40.7945   57.8607   33.6108 C.ar    1  <0>        -0.0611
      6 C6         35.4237   57.3067   32.4093 C.ar    1  <0>        -0.0611
      7 C7         42.1928   57.6709   33.7855 C.ar    1  <0>        -0.0600
      8 C8         35.9589   56.5347   31.3144 C.ar    1  <0>        -0.0600
      9 C9         39.8959   57.5010   34.6683 C.ar    1  <0>        -0.0522
     10 C10        35.8671   57.0468   33.7605 C.ar    1  <0>        -0.0522
     11 C11        42.7278   57.1231   34.9839 C.ar    1  <0>        -0.0400
     12 C12        36.9302   55.5078   31.5378 C.ar    1  <0>        -0.0398
     13 C13        40.4118   53.9289   32.1126 C.3     1  <0>         0.0036
     14 C14        38.9785   53.4164   32.4305 C.3     1  <0>         0.0218
     15 C15        41.4447   52.7895   32.1821 C.3     1  <0>        -0.0309
     16 C16        40.9171   56.0393   37.9488 C.2     1  <0>         0.0136
     17 C17        38.3562   54.4781   34.7066 C.2     1  <0>         0.0163
     18 C18        40.3793   56.9504   35.9145 C.ar    1  <0>         0.0054
     19 C19        36.8384   56.0208   34.0220 C.ar    1  <0>         0.0057
     20 C20        41.8342   56.7604   36.0502 C.ar    1  <0>         0.0390
     21 C21        37.3682   55.2554   32.8828 C.ar    1  <0>         0.0416
     22 C22        39.8118   56.4758   37.1505 C.2     1  <0>         0.0135
     23 C23        37.4866   55.5238   35.1723 C.2     1  <0>         0.0137
     24 C24        38.3149   56.4233   37.5015 C.2     1  <0>         0.0590
     25 C25        37.3012   56.0009   36.6230 C.2     1  <0>         0.0590
     26 C26        37.7883   56.7680   38.7663 C.2     1  <0>         0.2519
     27 C27        36.0083   56.0791   37.2608 C.2     1  <0>         0.2519
     28 N1         42.0885   56.2151   37.2790 N.pl3   1  <0>        -0.3170
     29 N2         36.3745   56.5422   38.5761 N.am    1  <0>        -0.2483
     30 N3         38.2710   54.3507   33.3302 N.pl3   1  <0>        -0.3026
     31 N4         42.8584   53.1581   32.4136 N.4     1  <0>         0.2309
     32 O1         38.3618   57.1567   39.7587 O.2     1  <0>        -0.2697
     33 O2         34.8921   55.8032   36.7945 O.2     1  <0>        -0.2697
     34 H1         40.8799   54.3737   39.2449 H       1  <0>         0.0290
     35 H2         41.9043   55.7447   39.7905 H       1  <0>         0.0290
     36 H3         40.1147   55.8641   39.8927 H       1  <0>         0.0290
     37 H4         38.7200   52.7053   35.7712 H       1  <0>         0.0290
     38 H5         40.1158   53.3409   34.8361 H       1  <0>         0.0290
     39 H6         39.6103   54.1509   36.3577 H       1  <0>         0.0290
     40 H7         42.7608   52.2785   34.3340 H       1  <0>         0.0777
     41 H8         44.1365   53.4049   34.0793 H       1  <0>         0.0777
     42 H9         42.4737   54.0511   34.2907 H       1  <0>         0.0777
     43 H10        43.1460   54.4426   30.7498 H       1  <0>         0.0777
     44 H11        42.6908   55.2682   32.2786 H       1  <0>         0.0777
     45 H12        44.3537   54.6220   32.0672 H       1  <0>         0.0777
     46 H13        40.4123   58.2727   32.6885 H       1  <0>         0.0618
     47 H14        34.6923   58.0783   32.2196 H       1  <0>         0.0618
     48 H15        42.8656   57.9499   32.9881 H       1  <0>         0.0618
     49 H16        35.6207   56.7352   30.3085 H       1  <0>         0.0618
     50 H17        38.8343   57.6445   34.5310 H       1  <0>         0.0624
     51 H18        35.4659   57.6273   34.5781 H       1  <0>         0.0624
     52 H19        43.7930   56.9811   35.0918 H       1  <0>         0.0636
     53 H20        37.3258   54.9343   30.7126 H       1  <0>         0.0636
     54 H21        40.4200   54.3539   31.0981 H       1  <0>         0.0332
     55 H22        40.6842   54.7003   32.8480 H       1  <0>         0.0332
     56 H23        38.4136   53.3277   31.4908 H       1  <0>         0.0469
     57 H24        39.0502   52.4337   32.9196 H       1  <0>         0.0469
     58 H25        41.1447   52.1380   33.0161 H       1  <0>         0.0815
     59 H26        41.4062   52.2654   31.2158 H       1  <0>         0.0815
     60 H27        42.9951   55.9817   37.6305 H       1  <0>         0.1519
     61 H28        35.7020   56.6952   39.3002 H       1  <0>         0.1581
     62 H29        43.4005   52.4574   31.9498 H       1  <0>         0.2028
@<TRIPOS>BOND
     1     1    16    1
     2     2    17    1
     3     3    31    1
     4     4    31    1
     5     5     7   ar
     6     5     9   ar
     7     6     8   ar
     8     6    10   ar
     9     7    11   ar
    10     8    12   ar
    11     9    18   ar
    12    10    19   ar
    13    11    20   ar
    14    12    21   ar
    15    13    14    1
    16    13    15    1
    17    14    30    1
    18    15    31    1
    19    16    22    2
    20    16    28    1
    21    17    23    2
    22    17    30    1
    23    18    20   ar
    24    18    22    1
    25    19    21   ar
    26    19    23    1
    27    20    28    1
    28    21    30    1
    29    22    24    1
    30    23    25    1
    31    24    25    2
    32    24    26    1
    33    25    27    1
    34    26    29   am
    35    26    32    2
    36    27    29   am
    37    27    33    2
    38     1    34    1
    39     1    35    1
    40     1    36    1
    41     2    37    1
    42     2    38    1
    43     2    39    1
    44     3    40    1
    45     3    41    1
    46     3    42    1
    47     4    43    1
    48     4    44    1
    49     4    45    1
    50     5    46    1
    51     6    47    1
    52     7    48    1
    53     8    49    1
    54     9    50    1
    55    10    51    1
    56    11    52    1
    57    12    53    1
    58    13    54    1
    59    13    55    1
    60    14    56    1
    61    14    57    1
    62    15    58    1
    63    15    59    1
    64    28    60    1
    65    29    61    1
    66    31    62    1
@<TRIPOS>SUBSTRUCTURE
     1 <0>         1 TEMP              0 ****  ****    0 ROOT

