
##########                                Name:        PDS_901_2I0E
##########                    Molecular_Weight:             441.553
##########                DOCK_Rotatable_Bonds:                   6
##########                       Formal_Charge:              0.9995
##########                     HBond_Acceptors:                   6
##########                        HBond_Donors:                   3
##########                         Heavy_Atoms:                  33
##########                            HA_RMSDs:               2.035
##########                            HA_RMSDh:               2.035
##########                            HA_RMSDm:               1.594
##########                          Grid_Score:         -112.022568
##########                     Grid_vdw_energy:          -51.483128
##########                      Grid_es_energy:          -60.539440
##########           Internal_energy_repulsive:           27.198277

@<TRIPOS>MOLECULE
PDS_901_2I0E
 62 66 1 0 0
SMALL
USER_CHARGES


@<TRIPOS>ATOM
      1 C1         42.3079   55.6007   39.1568 C.3     1  <0>        -0.0259
      2 C2         39.6948   53.5075   35.9084 C.3     1  <0>        -0.0257
      3 C3         42.5824   53.4942   33.5667 C.3     1  <0>        -0.0433
      4 C4         42.8218   54.2668   31.3232 C.3     1  <0>        -0.0433
      5 C5         40.8505   57.4996   33.4617 C.ar    1  <0>        -0.0611
      6 C6         35.3801   57.1978   33.5830 C.ar    1  <0>        -0.0611
      7 C7         42.2504   57.2893   33.3275 C.ar    1  <0>        -0.0600
      8 C8         35.6278   56.3480   32.4438 C.ar    1  <0>        -0.0600
      9 C9         40.2180   57.2550   34.7247 C.ar    1  <0>        -0.0522
     10 C10        36.1120   56.9890   34.8120 C.ar    1  <0>        -0.0522
     11 C11        43.0443   56.8323   34.4153 C.ar    1  <0>        -0.0400
     12 C12        36.5930   55.2931   32.5030 C.ar    1  <0>        -0.0398
     13 C13        39.8933   53.7171   32.1664 C.3     1  <0>         0.0036
     14 C14        38.7267   53.1642   33.0332 C.3     1  <0>         0.0218
     15 C15        41.0032   52.6665   31.9813 C.3     1  <0>        -0.0309
     16 C16        41.9601   56.0533   37.8008 C.2     1  <0>         0.0136
     17 C17        38.6725   54.3675   35.3232 C.2     1  <0>         0.0163
     18 C18        40.9727   56.8007   35.8709 C.ar    1  <0>         0.0054
     19 C19        37.0859   55.9369   34.9083 C.ar    1  <0>         0.0057
     20 C20        42.4186   56.5854   35.6860 C.ar    1  <0>         0.0390
     21 C21        37.3184   55.0917   33.7268 C.ar    1  <0>         0.0416
     22 C22        40.7029   56.4483   37.2413 C.2     1  <0>         0.0135
     23 C23        37.9641   55.4724   35.9100 C.2     1  <0>         0.0137
     24 C24        39.3271   56.4648   37.9293 C.2     1  <0>         0.0590
     25 C25        38.1291   56.0311   37.3337 C.2     1  <0>         0.0590
     26 C26        39.1144   56.8931   39.2586 C.2     1  <0>         0.2519
     27 C27        37.0206   56.1863   38.2457 C.2     1  <0>         0.2519
     28 N1         42.9464   56.1407   36.8674 N.pl3   1  <0>        -0.3170
     29 N2         37.6906   56.7054   39.4120 N.am    1  <0>        -0.2483
     30 N3         38.2717   54.1732   34.0120 N.pl3   1  <0>        -0.3026
     31 N4         42.4037   53.1103   32.1532 N.4     1  <0>         0.2309
     32 O1         39.9097   57.3140   40.0680 O.2     1  <0>        -0.2697
     33 O2         35.8215   55.9239   38.0654 O.2     1  <0>        -0.2697
     34 H1         42.2136   54.5062   39.2141 H       1  <0>         0.0290
     35 H2         43.3437   55.8918   39.3859 H       1  <0>         0.0290
     36 H3         41.6266   56.0658   39.8844 H       1  <0>         0.0290
     37 H4         39.2158   52.6380   36.3823 H       1  <0>         0.0290
     38 H5         40.3800   53.1637   35.1196 H       1  <0>         0.0290
     39 H6         40.2598   54.0721   36.6647 H       1  <0>         0.0290
     40 H7         42.2813   52.6582   34.2151 H       1  <0>         0.0777
     41 H8         43.6394   53.7376   33.7496 H       1  <0>         0.0777
     42 H9         41.9597   54.3733   33.7892 H       1  <0>         0.0777
     43 H10        42.7022   54.0172   30.2586 H       1  <0>         0.0777
     44 H11        42.1968   55.1384   31.5677 H       1  <0>         0.0777
     45 H12        43.8765   54.5027   31.5280 H       1  <0>         0.0777
     46 H13        40.2682   57.8409   32.6185 H       1  <0>         0.0618
     47 H14        34.6484   57.9894   33.5177 H       1  <0>         0.0618
     48 H15        42.7227   57.4815   32.3754 H       1  <0>         0.0618
     49 H16        35.0752   56.5108   31.5303 H       1  <0>         0.0618
     50 H17        39.1542   57.4136   34.8221 H       1  <0>         0.0624
     51 H18        35.9257   57.6275   35.6629 H       1  <0>         0.0624
     52 H19        44.1049   56.6726   34.2884 H       1  <0>         0.0636
     53 H20        36.7723   54.6613   31.6456 H       1  <0>         0.0636
     54 H21        39.4998   53.9957   31.1777 H       1  <0>         0.0332
     55 H22        40.3196   54.5994   32.6661 H       1  <0>         0.0332
     56 H23        37.8860   52.8997   32.3750 H       1  <0>         0.0469
     57 H24        39.0747   52.2720   33.5745 H       1  <0>         0.0469
     58 H25        40.8245   51.8792   32.7285 H       1  <0>         0.0815
     59 H26        40.9134   52.2861   30.9531 H       1  <0>         0.0815
     60 H27        43.9084   55.9149   37.0211 H       1  <0>         0.1519
     61 H28        37.2072   56.9188   40.2610 H       1  <0>         0.1581
     62 H29        42.9700   52.3402   31.8593 H       1  <0>         0.2028
@<TRIPOS>BOND
     1     1    16    1
     2     2    17    1
     3     3    31    1
     4     4    31    1
     5     5     7   ar
     6     5     9   ar
     7     6     8   ar
     8     6    10   ar
     9     7    11   ar
    10     8    12   ar
    11     9    18   ar
    12    10    19   ar
    13    11    20   ar
    14    12    21   ar
    15    13    14    1
    16    13    15    1
    17    14    30    1
    18    15    31    1
    19    16    22    2
    20    16    28    1
    21    17    23    2
    22    17    30    1
    23    18    20   ar
    24    18    22    1
    25    19    21   ar
    26    19    23    1
    27    20    28    1
    28    21    30    1
    29    22    24    1
    30    23    25    1
    31    24    25    2
    32    24    26    1
    33    25    27    1
    34    26    29   am
    35    26    32    2
    36    27    29   am
    37    27    33    2
    38     1    34    1
    39     1    35    1
    40     1    36    1
    41     2    37    1
    42     2    38    1
    43     2    39    1
    44     3    40    1
    45     3    41    1
    46     3    42    1
    47     4    43    1
    48     4    44    1
    49     4    45    1
    50     5    46    1
    51     6    47    1
    52     7    48    1
    53     8    49    1
    54     9    50    1
    55    10    51    1
    56    11    52    1
    57    12    53    1
    58    13    54    1
    59    13    55    1
    60    14    56    1
    61    14    57    1
    62    15    58    1
    63    15    59    1
    64    28    60    1
    65    29    61    1
    66    31    62    1
@<TRIPOS>SUBSTRUCTURE
     1 <0>         1 TEMP              0 ****  ****    0 ROOT

