
##########                                Name:        PDS_901_2I0E
##########                    Molecular_Weight:             441.553
##########                DOCK_Rotatable_Bonds:                   6
##########                       Formal_Charge:              0.9995
##########                     HBond_Acceptors:                   6
##########                        HBond_Donors:                   3
##########                         Heavy_Atoms:                  33
##########                            HA_RMSDs:               1.890
##########                            HA_RMSDh:               1.890
##########                            HA_RMSDm:               1.502
##########                          Grid_Score:         -110.376770
##########                     Grid_vdw_energy:          -50.306816
##########                      Grid_es_energy:          -60.069954
##########           Internal_energy_repulsive:           20.823570

@<TRIPOS>MOLECULE
PDS_901_2I0E
 62 66 1 0 0
SMALL
USER_CHARGES


@<TRIPOS>ATOM
      1 C1         41.7223   55.0138   39.3632 C.3     1  <0>        -0.0259
      2 C2         39.4564   53.6573   35.8507 C.3     1  <0>        -0.0257
      3 C3         42.6479   53.0321   33.4392 C.3     1  <0>        -0.0433
      4 C4         42.9277   54.3172   31.4497 C.3     1  <0>        -0.0433
      5 C5         41.2211   57.8139   33.8794 C.ar    1  <0>        -0.0611
      6 C6         35.5034   57.6301   33.3540 C.ar    1  <0>        -0.0611
      7 C7         42.5837   57.4086   33.8533 C.ar    1  <0>        -0.0600
      8 C8         35.8065   56.8162   32.2021 C.ar    1  <0>        -0.0600
      9 C9         40.4172   57.5134   35.0277 C.ar    1  <0>        -0.0522
     10 C10        36.1239   57.3392   34.6269 C.ar    1  <0>        -0.0522
     11 C11        43.1732   56.7018   34.9376 C.ar    1  <0>        -0.0400
     12 C12        36.7185   55.7170   32.2915 C.ar    1  <0>        -0.0398
     13 C13        39.9850   53.9939   32.1718 C.3     1  <0>         0.0036
     14 C14        38.7107   53.4738   32.8957 C.3     1  <0>         0.0218
     15 C15        40.9293   52.8378   31.7957 C.3     1  <0>        -0.0309
     16 C16        41.6022   55.6811   38.0575 C.2     1  <0>         0.0136
     17 C17        38.5220   54.5857   35.2245 C.2     1  <0>         0.0163
     18 C18        40.9617   56.8080   36.1660 C.ar    1  <0>         0.0054
     19 C19        37.0417   56.2409   34.7539 C.ar    1  <0>         0.0057
     20 C20        42.3749   56.3970   36.0937 C.ar    1  <0>         0.0390
     21 C21        37.3334   55.4341   33.5589 C.ar    1  <0>         0.0416
     22 C22        40.4868   56.3324   37.4401 C.2     1  <0>         0.0135
     23 C23        37.8156   55.6972   35.8008 C.2     1  <0>         0.0137
     24 C24        39.0558   56.4746   37.9866 C.2     1  <0>         0.0590
     25 C25        37.8881   56.1905   37.2561 C.2     1  <0>         0.0590
     26 C26        38.7512   56.8816   39.3047 C.2     1  <0>         0.2519
     27 C27        36.7126   56.4349   38.0580 C.2     1  <0>         0.2519
     28 N1         42.6934   55.7316   37.2460 N.pl3   1  <0>        -0.3170
     29 N2         37.3074   56.8427   39.3064 N.am    1  <0>        -0.2483
     30 N3         38.2209   54.4625   33.8783 N.pl3   1  <0>        -0.3026
     31 N4         42.3809   53.0473   31.9880 N.4     1  <0>         0.2309
     32 O1         39.4970   57.1895   40.2068 O.2     1  <0>        -0.2697
     33 O2         35.5182   56.3081   37.7474 O.2     1  <0>        -0.2697
     34 H1         41.4698   53.9485   39.2557 H       1  <0>         0.0290
     35 H2         42.7546   55.1105   39.7306 H       1  <0>         0.0290
     36 H3         41.0323   55.4835   40.0797 H       1  <0>         0.0290
     37 H4         38.9045   52.7922   36.2469 H       1  <0>         0.0290
     38 H5         40.1882   53.3147   35.1043 H       1  <0>         0.0290
     39 H6         39.9816   54.1650   36.6731 H       1  <0>         0.0290
     40 H7         42.2552   52.1016   33.8751 H       1  <0>         0.0777
     41 H8         43.7327   53.0888   33.6129 H       1  <0>         0.0777
     42 H9         42.1552   53.8947   33.9116 H       1  <0>         0.0777
     43 H10        42.7467   54.3647   30.3658 H       1  <0>         0.0777
     44 H11        42.4322   55.1672   31.9416 H       1  <0>         0.0777
     45 H12        44.0097   54.3613   31.6429 H       1  <0>         0.0777
     46 H13        40.7949   58.3440   33.0404 H       1  <0>         0.0618
     47 H14        34.8134   58.4561   33.2655 H       1  <0>         0.0618
     48 H15        43.1864   57.6435   32.9884 H       1  <0>         0.0618
     49 H16        35.3371   57.0405   31.2556 H       1  <0>         0.0618
     50 H17        39.3820   57.8209   35.0428 H       1  <0>         0.0624
     51 H18        35.8964   57.9510   35.4873 H       1  <0>         0.0624
     52 H19        44.2085   56.3975   34.8929 H       1  <0>         0.0636
     53 H20        36.9399   55.1126   31.4243 H       1  <0>         0.0636
     54 H21        39.6824   54.5182   31.2534 H       1  <0>         0.0332
     55 H22        40.5179   54.6835   32.8429 H       1  <0>         0.0332
     56 H23        37.9240   53.2918   32.1487 H       1  <0>         0.0469
     57 H24        38.9540   52.5381   33.4203 H       1  <0>         0.0469
     58 H25        40.6458   51.9785   32.4211 H       1  <0>         0.0815
     59 H26        40.7756   52.6364   30.7253 H       1  <0>         0.0815
     60 H27        43.5897   55.3425   37.4590 H       1  <0>         0.1519
     61 H28        36.7628   57.0801   40.1108 H       1  <0>         0.1581
     62 H29        42.8305   52.3145   31.4773 H       1  <0>         0.2028
@<TRIPOS>BOND
     1     1    16    1
     2     2    17    1
     3     3    31    1
     4     4    31    1
     5     5     7   ar
     6     5     9   ar
     7     6     8   ar
     8     6    10   ar
     9     7    11   ar
    10     8    12   ar
    11     9    18   ar
    12    10    19   ar
    13    11    20   ar
    14    12    21   ar
    15    13    14    1
    16    13    15    1
    17    14    30    1
    18    15    31    1
    19    16    22    2
    20    16    28    1
    21    17    23    2
    22    17    30    1
    23    18    20   ar
    24    18    22    1
    25    19    21   ar
    26    19    23    1
    27    20    28    1
    28    21    30    1
    29    22    24    1
    30    23    25    1
    31    24    25    2
    32    24    26    1
    33    25    27    1
    34    26    29   am
    35    26    32    2
    36    27    29   am
    37    27    33    2
    38     1    34    1
    39     1    35    1
    40     1    36    1
    41     2    37    1
    42     2    38    1
    43     2    39    1
    44     3    40    1
    45     3    41    1
    46     3    42    1
    47     4    43    1
    48     4    44    1
    49     4    45    1
    50     5    46    1
    51     6    47    1
    52     7    48    1
    53     8    49    1
    54     9    50    1
    55    10    51    1
    56    11    52    1
    57    12    53    1
    58    13    54    1
    59    13    55    1
    60    14    56    1
    61    14    57    1
    62    15    58    1
    63    15    59    1
    64    28    60    1
    65    29    61    1
    66    31    62    1
@<TRIPOS>SUBSTRUCTURE
     1 <0>         1 TEMP              0 ****  ****    0 ROOT

