
##########                                Name:        PDS_901_2I0E
##########                    Molecular_Weight:             441.553
##########                DOCK_Rotatable_Bonds:                   6
##########                       Formal_Charge:              0.9995
##########                     HBond_Acceptors:                   6
##########                        HBond_Donors:                   3
##########                         Heavy_Atoms:                  33
##########                            HA_RMSDs:               1.204
##########                            HA_RMSDh:               1.204
##########                            HA_RMSDm:               1.084
##########                          Grid_Score:         -113.654457
##########                     Grid_vdw_energy:          -57.233063
##########                      Grid_es_energy:          -56.421394
##########           Internal_energy_repulsive:           27.270199

@<TRIPOS>MOLECULE
PDS_901_2I0E
 62 66 1 0 0
SMALL
USER_CHARGES


@<TRIPOS>ATOM
      1 C1         41.0392   55.5973   39.4256 C.3     1  <0>        -0.0259
      2 C2         39.4749   53.6243   35.7036 C.3     1  <0>        -0.0257
      3 C3         42.7405   53.7199   33.6649 C.3     1  <0>        -0.0433
      4 C4         43.0782   55.0118   31.6889 C.3     1  <0>        -0.0433
      5 C5         40.9912   57.6338   33.5933 C.ar    1  <0>        -0.0611
      6 C6         35.4638   56.8749   32.3890 C.ar    1  <0>        -0.0611
      7 C7         42.3833   57.4282   33.7973 C.ar    1  <0>        -0.0600
      8 C8         36.0233   56.0353   31.3578 C.ar    1  <0>        -0.0600
      9 C9         40.0734   57.3578   34.6595 C.ar    1  <0>        -0.0522
     10 C10        35.9283   56.7505   33.7523 C.ar    1  <0>        -0.0522
     11 C11        42.8933   56.9454   35.0340 C.ar    1  <0>        -0.0400
     12 C12        37.0397   55.0733   31.6569 C.ar    1  <0>        -0.0398
     13 C13        40.2539   53.8647   31.8251 C.3     1  <0>         0.0036
     14 C14        39.1831   53.1545   32.7010 C.3     1  <0>         0.0218
     15 C15        41.5415   53.0272   31.7220 C.3     1  <0>        -0.0309
     16 C16        41.0270   56.0827   38.0367 C.2     1  <0>         0.0136
     17 C17        38.5332   54.3798   34.8854 C.2     1  <0>         0.0163
     18 C18        40.5312   56.8763   35.9433 C.ar    1  <0>         0.0054
     19 C19        36.9450   55.7926   34.0891 C.ar    1  <0>         0.0057
     20 C20        41.9803   56.6669   36.1091 C.ar    1  <0>         0.0390
     21 C21        37.4985   54.9557   33.0133 C.ar    1  <0>         0.0416
     22 C22        39.9400   56.4902   37.1989 C.2     1  <0>         0.0135
     23 C23        37.6228   55.4238   35.2702 C.2     1  <0>         0.0137
     24 C24        38.4384   56.4885   37.5333 C.2     1  <0>         0.0590
     25 C25        37.4283   56.0150   36.6770 C.2     1  <0>         0.0590
     26 C26        37.9027   56.9386   38.7606 C.2     1  <0>         0.2519
     27 C27        36.1294   56.1627   37.2898 C.2     1  <0>         0.2519
     28 N1         42.2094   56.1939   37.3723 N.pl3   1  <0>        -0.3170
     29 N2         36.4876   56.7209   38.5699 N.am    1  <0>        -0.2483
     30 N3         38.4429   54.1316   33.5259 N.pl3   1  <0>        -0.3026
     31 N4         42.8009   53.6441   32.1925 N.4     1  <0>         0.2309
     32 O1         38.4707   57.3943   39.7272 O.2     1  <0>        -0.2697
     33 O2         35.0144   55.8689   36.8317 O.2     1  <0>        -0.2697
     34 H1         40.9414   54.5017   39.4325 H       1  <0>         0.0290
     35 H2         41.9867   55.8837   39.9055 H       1  <0>         0.0290
     36 H3         40.1988   56.0439   39.9772 H       1  <0>         0.0290
     37 H4         38.9813   52.7216   36.0928 H       1  <0>         0.0290
     38 H5         40.3411   53.3333   35.0913 H       1  <0>         0.0290
     39 H6         39.8129   54.2484   36.5440 H       1  <0>         0.0290
     40 H7         42.5357   52.7205   34.0760 H       1  <0>         0.0777
     41 H8         43.7027   54.0856   34.0528 H       1  <0>         0.0777
     42 H9         41.9382   54.4107   33.9637 H       1  <0>         0.0777
     43 H10        43.1306   54.9951   30.5903 H       1  <0>         0.0777
     44 H11        42.2726   55.6899   32.0070 H       1  <0>         0.0777
     45 H12        44.0372   55.3648   32.0961 H       1  <0>         0.0777
     46 H13        40.6280   57.9952   32.6425 H       1  <0>         0.0618
     47 H14        34.6983   57.5958   32.1426 H       1  <0>         0.0618
     48 H15        43.0707   57.6441   32.9928 H       1  <0>         0.0618
     49 H16        35.6690   56.1345   30.3424 H       1  <0>         0.0618
     50 H17        39.0166   57.5130   34.4999 H       1  <0>         0.0624
     51 H18        35.5089   57.3813   34.5220 H       1  <0>         0.0624
     52 H19        43.9541   56.7898   35.1640 H       1  <0>         0.0636
     53 H20        37.4533   54.4486   30.8790 H       1  <0>         0.0636
     54 H21        39.8449   54.0126   30.8148 H       1  <0>         0.0332
     55 H22        40.4977   54.8359   32.2804 H       1  <0>         0.0332
     56 H23        38.4734   52.6306   32.0438 H       1  <0>         0.0469
     57 H24        39.6838   52.4332   33.3636 H       1  <0>         0.0469
     58 H25        41.3833   52.1235   32.3289 H       1  <0>         0.0815
     59 H26        41.6819   52.7886   30.6574 H       1  <0>         0.0815
     60 H27        43.1070   55.9653   37.7491 H       1  <0>         0.1519
     61 H28        35.8093   56.9402   39.2712 H       1  <0>         0.1581
     62 H29        43.5351   53.0650   31.8382 H       1  <0>         0.2028
@<TRIPOS>BOND
     1     1    16    1
     2     2    17    1
     3     3    31    1
     4     4    31    1
     5     5     7   ar
     6     5     9   ar
     7     6     8   ar
     8     6    10   ar
     9     7    11   ar
    10     8    12   ar
    11     9    18   ar
    12    10    19   ar
    13    11    20   ar
    14    12    21   ar
    15    13    14    1
    16    13    15    1
    17    14    30    1
    18    15    31    1
    19    16    22    2
    20    16    28    1
    21    17    23    2
    22    17    30    1
    23    18    20   ar
    24    18    22    1
    25    19    21   ar
    26    19    23    1
    27    20    28    1
    28    21    30    1
    29    22    24    1
    30    23    25    1
    31    24    25    2
    32    24    26    1
    33    25    27    1
    34    26    29   am
    35    26    32    2
    36    27    29   am
    37    27    33    2
    38     1    34    1
    39     1    35    1
    40     1    36    1
    41     2    37    1
    42     2    38    1
    43     2    39    1
    44     3    40    1
    45     3    41    1
    46     3    42    1
    47     4    43    1
    48     4    44    1
    49     4    45    1
    50     5    46    1
    51     6    47    1
    52     7    48    1
    53     8    49    1
    54     9    50    1
    55    10    51    1
    56    11    52    1
    57    12    53    1
    58    13    54    1
    59    13    55    1
    60    14    56    1
    61    14    57    1
    62    15    58    1
    63    15    59    1
    64    28    60    1
    65    29    61    1
    66    31    62    1
@<TRIPOS>SUBSTRUCTURE
     1 <0>         1 TEMP              0 ****  ****    0 ROOT

