
##########                                Name:        PDS_901_2I0E
##########                    Molecular_Weight:             441.553
##########                DOCK_Rotatable_Bonds:                   6
##########                       Formal_Charge:              0.9995
##########                     HBond_Acceptors:                   6
##########                        HBond_Donors:                   3
##########                         Heavy_Atoms:                  33
##########                            HA_RMSDs:               0.599
##########                            HA_RMSDh:               0.599
##########                            HA_RMSDm:               0.599
##########                          Grid_Score:         -113.535522
##########                     Grid_vdw_energy:          -53.644516
##########                      Grid_es_energy:          -59.891010
##########           Internal_energy_repulsive:           38.122868

@<TRIPOS>MOLECULE
PDS_901_2I0E
 62 66 1 0 0
SMALL
USER_CHARGES


@<TRIPOS>ATOM
      1 C1         40.1899   56.1819   39.1263 C.3     1  <0>        -0.0259
      2 C2         39.0039   53.9690   35.2184 C.3     1  <0>        -0.0257
      3 C3         42.1987   53.3878   34.3230 C.3     1  <0>        -0.0433
      4 C4         43.5114   54.3439   32.5766 C.3     1  <0>        -0.0433
      5 C5         40.4740   57.8582   33.1872 C.ar    1  <0>        -0.0611
      6 C6         35.1329   57.0966   31.6301 C.ar    1  <0>        -0.0611
      7 C7         41.8558   57.7658   33.5092 C.ar    1  <0>        -0.0600
      8 C8         35.8105   56.2988   30.6373 C.ar    1  <0>        -0.0600
      9 C9         39.4941   57.5810   34.1962 C.ar    1  <0>        -0.0522
     10 C10        35.4911   56.9703   33.0250 C.ar    1  <0>        -0.0522
     11 C11        42.2961   57.3955   34.8099 C.ar    1  <0>        -0.0400
     12 C12        36.8411   55.3769   31.0058 C.ar    1  <0>        -0.0398
     13 C13        40.4187   54.0958   32.0402 C.3     1  <0>         0.0036
     14 C14        38.9763   53.5359   32.1962 C.3     1  <0>         0.0218
     15 C15        41.4674   52.9700   32.0907 C.3     1  <0>        -0.0309
     16 C16        40.2568   56.5815   37.7119 C.2     1  <0>         0.0136
     17 C17        38.0987   54.6962   34.3359 C.2     1  <0>         0.0163
     18 C18        39.8786   57.2110   35.5398 C.ar    1  <0>         0.0054
     19 C19        36.5188   56.0519   33.4312 C.ar    1  <0>         0.0057
     20 C20        41.3205   57.1167   35.8284 C.ar    1  <0>         0.0390
     21 C21        37.1938   55.2573   32.3934 C.ar    1  <0>         0.0416
     22 C22        39.2157   56.8590   36.7692 C.2     1  <0>         0.0135
     23 C23        37.1148   55.6936   34.6587 C.2     1  <0>         0.0137
     24 C24        37.6956   56.7693   36.9880 C.2     1  <0>         0.0590
     25 C25        36.7814   56.2529   36.0524 C.2     1  <0>         0.0590
     26 C26        37.0440   57.1715   38.1753 C.2     1  <0>         0.2519
     27 C27        35.4336   56.3196   36.5658 C.2     1  <0>         0.2519
     28 N1         41.4785   56.7376   37.1334 N.pl3   1  <0>        -0.3170
     29 N2         35.6620   56.8784   37.8750 N.am    1  <0>        -0.2483
     30 N3         38.1294   54.4665   32.9706 N.pl3   1  <0>        -0.3026
     31 N4         42.6618   53.1823   32.9371 N.4     1  <0>         0.2309
     32 O1         37.5107   57.6440   39.1870 O.2     1  <0>        -0.2697
     33 O2         34.3748   55.9710   36.0210 O.2     1  <0>        -0.2697
     34 H1         40.1654   55.0844   39.1971 H       1  <0>         0.0290
     35 H2         41.0744   56.5638   39.6572 H       1  <0>         0.0290
     36 H3         39.2799   56.5990   39.5824 H       1  <0>         0.0290
     37 H4         38.5211   53.0396   35.5547 H       1  <0>         0.0290
     38 H5         39.9287   53.7256   34.6748 H       1  <0>         0.0290
     39 H6         39.2450   54.5934   36.0913 H       1  <0>         0.0290
     40 H7         41.5632   52.5429   34.6269 H       1  <0>         0.0777
     41 H8         43.0678   53.4525   34.9941 H       1  <0>         0.0777
     42 H9         41.6199   54.3214   34.3814 H       1  <0>         0.0777
     43 H10        43.8767   54.2258   31.5457 H       1  <0>         0.0777
     44 H11        42.9197   55.2682   32.6520 H       1  <0>         0.0777
     45 H12        44.3678   54.3993   33.2647 H       1  <0>         0.0777
     46 H13        40.1650   58.1352   32.1900 H       1  <0>         0.0618
     47 H14        34.3586   57.7877   31.3315 H       1  <0>         0.0618
     48 H15        42.5897   57.9822   32.7469 H       1  <0>         0.0618
     49 H16        35.5352   56.3992   29.5978 H       1  <0>         0.0618
     50 H17        38.4455   57.6500   33.9471 H       1  <0>         0.0624
     51 H18        34.9833   57.5698   33.7660 H       1  <0>         0.0624
     52 H19        43.3511   57.3247   35.0299 H       1  <0>         0.0636
     53 H20        37.3434   54.7834   30.2562 H       1  <0>         0.0636
     54 H21        40.4968   54.6103   31.0711 H       1  <0>         0.0332
     55 H22        40.6160   54.8018   32.8603 H       1  <0>         0.0332
     56 H23        38.5360   53.3980   31.1977 H       1  <0>         0.0469
     57 H24        39.0221   52.5712   32.7228 H       1  <0>         0.0469
     58 H25        40.9569   52.0761   32.4786 H       1  <0>         0.0815
     59 H26        41.8280   52.8241   31.0618 H       1  <0>         0.0815
     60 H27        42.3563   56.5969   37.5914 H       1  <0>         0.1519
     61 H28        34.9213   57.0497   38.5247 H       1  <0>         0.1581
     62 H29        43.2329   52.3717   32.8081 H       1  <0>         0.2028
@<TRIPOS>BOND
     1     1    16    1
     2     2    17    1
     3     3    31    1
     4     4    31    1
     5     5     7   ar
     6     5     9   ar
     7     6     8   ar
     8     6    10   ar
     9     7    11   ar
    10     8    12   ar
    11     9    18   ar
    12    10    19   ar
    13    11    20   ar
    14    12    21   ar
    15    13    14    1
    16    13    15    1
    17    14    30    1
    18    15    31    1
    19    16    22    2
    20    16    28    1
    21    17    23    2
    22    17    30    1
    23    18    20   ar
    24    18    22    1
    25    19    21   ar
    26    19    23    1
    27    20    28    1
    28    21    30    1
    29    22    24    1
    30    23    25    1
    31    24    25    2
    32    24    26    1
    33    25    27    1
    34    26    29   am
    35    26    32    2
    36    27    29   am
    37    27    33    2
    38     1    34    1
    39     1    35    1
    40     1    36    1
    41     2    37    1
    42     2    38    1
    43     2    39    1
    44     3    40    1
    45     3    41    1
    46     3    42    1
    47     4    43    1
    48     4    44    1
    49     4    45    1
    50     5    46    1
    51     6    47    1
    52     7    48    1
    53     8    49    1
    54     9    50    1
    55    10    51    1
    56    11    52    1
    57    12    53    1
    58    13    54    1
    59    13    55    1
    60    14    56    1
    61    14    57    1
    62    15    58    1
    63    15    59    1
    64    28    60    1
    65    29    61    1
    66    31    62    1
@<TRIPOS>SUBSTRUCTURE
     1 <0>         1 TEMP              0 ****  ****    0 ROOT

