
##########                                Name:        PDS_901_2I0E
##########                    Molecular_Weight:             441.553
##########                DOCK_Rotatable_Bonds:                   6
##########                       Formal_Charge:              0.9995
##########                     HBond_Acceptors:                   6
##########                        HBond_Donors:                   3
##########                         Heavy_Atoms:                  33
##########                            HA_RMSDs:               0.736
##########                            HA_RMSDh:               0.736
##########                            HA_RMSDm:               0.736
##########                          Grid_Score:         -113.991463
##########                     Grid_vdw_energy:          -53.782280
##########                      Grid_es_energy:          -60.209183
##########           Internal_energy_repulsive:           27.097591

@<TRIPOS>MOLECULE
PDS_901_2I0E
 62 66 1 0 0
SMALL
USER_CHARGES


@<TRIPOS>ATOM
      1 C1         40.3260   55.4276   39.2819 C.3     1  <0>        -0.0259
      2 C2         39.0556   53.5513   35.3452 C.3     1  <0>        -0.0257
      3 C3         42.3712   53.2488   34.4070 C.3     1  <0>        -0.0433
      4 C4         43.4434   54.3488   32.5828 C.3     1  <0>        -0.0433
      5 C5         40.6313   57.7696   33.5734 C.ar    1  <0>        -0.0611
      6 C6         35.3254   57.0036   31.9087 C.ar    1  <0>        -0.0611
      7 C7         42.0114   57.6028   33.8723 C.ar    1  <0>        -0.0600
      8 C8         35.9787   56.2334   30.8785 C.ar    1  <0>        -0.0600
      9 C9         39.6484   57.4047   34.5512 C.ar    1  <0>        -0.0522
     10 C10        35.6703   56.7919   33.2966 C.ar    1  <0>        -0.0522
     11 C11        42.4467   57.0731   35.1182 C.ar    1  <0>        -0.0400
     12 C12        36.9720   55.2557   31.2027 C.ar    1  <0>        -0.0398
     13 C13        40.4572   53.8511   32.0784 C.3     1  <0>         0.0036
     14 C14        39.0300   53.2766   32.3046 C.3     1  <0>         0.0218
     15 C15        41.5328   52.7598   32.2274 C.3     1  <0>        -0.0309
     16 C16        40.3979   55.9857   37.9225 C.2     1  <0>         0.0136
     17 C17        38.1834   54.3568   34.4981 C.2     1  <0>         0.0163
     18 C18        40.0282   56.8719   35.8402 C.ar    1  <0>         0.0054
     19 C19        36.6605   55.8158   33.6587 C.ar    1  <0>         0.0057
     20 C20        41.4681   56.7054   36.1051 C.ar    1  <0>         0.0390
     21 C21        37.3118   55.0512   32.5837 C.ar    1  <0>         0.0416
     22 C22        39.3610   56.3986   37.0259 C.2     1  <0>         0.0135
     23 C23        37.2355   55.3723   34.8683 C.2     1  <0>         0.0137
     24 C24        37.8399   56.3259   37.2444 C.2     1  <0>         0.0590
     25 C25        36.9148   55.8708   36.2878 C.2     1  <0>         0.0590
     26 C26        37.1980   56.6829   38.4511 C.2     1  <0>         0.2519
     27 C27        35.5694   55.9373   36.8074 C.2     1  <0>         0.2519
     28 N1         41.6211   56.1740   37.3566 N.pl3   1  <0>        -0.3170
     29 N2         35.8103   56.4292   38.1410 N.am    1  <0>        -0.2483
     30 N3         38.2138   54.1970   33.1228 N.pl3   1  <0>        -0.3026
     31 N4         42.7540   53.0996   32.9897 N.4     1  <0>         0.2309
     32 O1         37.6750   57.0986   39.4828 O.2     1  <0>        -0.2697
     33 O2         34.5035   55.6339   36.2497 O.2     1  <0>        -0.2697
     34 H1         40.2711   54.3304   39.2259 H       1  <0>         0.0290
     35 H2         41.2232   55.7214   39.8465 H       1  <0>         0.0290
     36 H3         39.4300   55.8140   39.7898 H       1  <0>         0.0290
     37 H4         38.5365   52.6246   35.6308 H       1  <0>         0.0290
     38 H5         39.9740   53.3019   34.7935 H       1  <0>         0.0290
     39 H6         39.3146   54.1202   36.2504 H       1  <0>         0.0290
     40 H7         41.8553   52.3383   34.7458 H       1  <0>         0.0777
     41 H8         43.2736   53.4066   35.0158 H       1  <0>         0.0777
     42 H9         41.6993   54.1129   34.5162 H       1  <0>         0.0777
     43 H10        43.7450   54.2747   31.5275 H       1  <0>         0.0777
     44 H11        42.7610   55.2021   32.7098 H       1  <0>         0.0777
     45 H12        44.3355   54.4959   33.2094 H       1  <0>         0.0777
     46 H13        40.3259   58.1681   32.6172 H       1  <0>         0.0618
     47 H14        34.5792   57.7378   31.6433 H       1  <0>         0.0618
     48 H15        42.7477   57.8856   33.1345 H       1  <0>         0.0618
     49 H16        35.7136   56.3977   29.8446 H       1  <0>         0.0618
     50 H17        38.6011   57.5307   34.3196 H       1  <0>         0.0624
     51 H18        35.1808   57.3709   34.0657 H       1  <0>         0.0624
     52 H19        43.5002   56.9485   35.3207 H       1  <0>         0.0636
     53 H20        37.4563   54.6833   30.4254 H       1  <0>         0.0636
     54 H21        40.5145   54.2695   31.0627 H       1  <0>         0.0332
     55 H22        40.6450   54.6386   32.8230 H       1  <0>         0.0332
     56 H23        38.5418   53.1366   31.3289 H       1  <0>         0.0469
     57 H24        39.1113   52.3112   32.8256 H       1  <0>         0.0469
     58 H25        41.0585   51.9138   32.7463 H       1  <0>         0.0815
     59 H26        41.8562   52.4905   31.2112 H       1  <0>         0.0815
     60 H27        42.4965   55.9576   37.7887 H       1  <0>         0.1519
     61 H28        35.0740   56.5828   38.8001 H       1  <0>         0.1581
     62 H29        43.3998   52.3571   32.8120 H       1  <0>         0.2028
@<TRIPOS>BOND
     1     1    16    1
     2     2    17    1
     3     3    31    1
     4     4    31    1
     5     5     7   ar
     6     5     9   ar
     7     6     8   ar
     8     6    10   ar
     9     7    11   ar
    10     8    12   ar
    11     9    18   ar
    12    10    19   ar
    13    11    20   ar
    14    12    21   ar
    15    13    14    1
    16    13    15    1
    17    14    30    1
    18    15    31    1
    19    16    22    2
    20    16    28    1
    21    17    23    2
    22    17    30    1
    23    18    20   ar
    24    18    22    1
    25    19    21   ar
    26    19    23    1
    27    20    28    1
    28    21    30    1
    29    22    24    1
    30    23    25    1
    31    24    25    2
    32    24    26    1
    33    25    27    1
    34    26    29   am
    35    26    32    2
    36    27    29   am
    37    27    33    2
    38     1    34    1
    39     1    35    1
    40     1    36    1
    41     2    37    1
    42     2    38    1
    43     2    39    1
    44     3    40    1
    45     3    41    1
    46     3    42    1
    47     4    43    1
    48     4    44    1
    49     4    45    1
    50     5    46    1
    51     6    47    1
    52     7    48    1
    53     8    49    1
    54     9    50    1
    55    10    51    1
    56    11    52    1
    57    12    53    1
    58    13    54    1
    59    13    55    1
    60    14    56    1
    61    14    57    1
    62    15    58    1
    63    15    59    1
    64    28    60    1
    65    29    61    1
    66    31    62    1
@<TRIPOS>SUBSTRUCTURE
     1 <0>         1 TEMP              0 ****  ****    0 ROOT

