
##########                                Name:        PDS_901_2I0E
##########                    Molecular_Weight:             441.553
##########                DOCK_Rotatable_Bonds:                   6
##########                       Formal_Charge:              0.9995
##########                     HBond_Acceptors:                   6
##########                        HBond_Donors:                   3
##########                         Heavy_Atoms:                  33
##########                            HA_RMSDs:               0.696
##########                            HA_RMSDh:               0.696
##########                            HA_RMSDm:               0.694
##########                          Grid_Score:         -114.324402
##########                     Grid_vdw_energy:          -56.811394
##########                      Grid_es_energy:          -57.513012
##########           Internal_energy_repulsive:           31.518225

@<TRIPOS>MOLECULE
PDS_901_2I0E
 62 66 1 0 0
SMALL
USER_CHARGES


@<TRIPOS>ATOM
      1 C1         40.2800   55.7951   39.4674 C.3     1  <0>        -0.0259
      2 C2         39.1605   53.7696   35.4898 C.3     1  <0>        -0.0257
      3 C3         42.4907   53.6814   34.4574 C.3     1  <0>        -0.0433
      4 C4         43.6333   54.6361   32.5944 C.3     1  <0>        -0.0433
      5 C5         40.5864   57.8575   33.6522 C.ar    1  <0>        -0.0611
      6 C6         35.2903   56.9869   31.9809 C.ar    1  <0>        -0.0611
      7 C7         41.9669   57.7630   33.9795 C.ar    1  <0>        -0.0600
      8 C8         35.9898   56.2376   30.9657 C.ar    1  <0>        -0.0600
      9 C9         39.6028   57.5020   34.6326 C.ar    1  <0>        -0.0522
     10 C10        35.6340   56.8103   33.3739 C.ar    1  <0>        -0.0522
     11 C11        42.4023   57.3151   35.2571 C.ar    1  <0>        -0.0400
     12 C12        37.0281   55.3151   31.3100 C.ar    1  <0>        -0.0398
     13 C13        40.5636   54.1087   32.2094 C.3     1  <0>         0.0036
     14 C14        39.1735   53.4557   32.4529 C.3     1  <0>         0.0218
     15 C15        41.6957   53.0688   32.2928 C.3     1  <0>        -0.0309
     16 C16        40.3522   56.2866   38.0826 C.2     1  <0>         0.0136
     17 C17        38.2560   54.5195   34.6258 C.2     1  <0>         0.0163
     18 C18        39.9820   57.0508   35.9526 C.ar    1  <0>         0.0054
     19 C19        36.6689   55.8897   33.7561 C.ar    1  <0>         0.0057
     20 C20        41.4228   56.9574   36.2469 C.ar    1  <0>         0.0390
     21 C21        37.3663   55.1453   32.6961 C.ar    1  <0>         0.0416
     22 C22        39.3147   56.6107   37.1509 C.2     1  <0>         0.0135
     23 C23        37.2554   55.4908   34.9756 C.2     1  <0>         0.0137
     24 C24        37.7943   56.4864   37.3503 C.2     1  <0>         0.0590
     25 C25        36.8986   55.9904   36.3861 C.2     1  <0>         0.0590
     26 C26        37.1242   56.8313   38.5451 C.2     1  <0>         0.2519
     27 C27        35.5449   56.0141   36.8876 C.2     1  <0>         0.2519
     28 N1         41.5761   56.4965   37.5260 N.pl3   1  <0>        -0.3170
     29 N2         35.7506   56.5261   38.2195 N.am    1  <0>        -0.2483
     30 N3         38.3055   54.3443   33.2529 N.pl3   1  <0>        -0.3026
     31 N4         42.9051   53.4315   33.0634 N.4     1  <0>         0.2309
     32 O1         37.5726   57.2728   39.5790 O.2     1  <0>        -0.2697
     33 O2         34.4978   55.6683   36.3189 O.2     1  <0>        -0.2697
     34 H1         40.2705   54.6951   39.4667 H       1  <0>         0.0290
     35 H2         41.1549   56.1537   40.0296 H       1  <0>         0.0290
     36 H3         39.3607   56.1693   39.9417 H       1  <0>         0.0290
     37 H4         38.6860   52.8216   35.7835 H       1  <0>         0.0290
     38 H5         40.0946   53.5596   34.9483 H       1  <0>         0.0290
     39 H6         39.3832   54.3621   36.3895 H       1  <0>         0.0290
     40 H7         41.9455   52.8064   34.8408 H       1  <0>         0.0777
     41 H8         43.3812   53.8593   35.0782 H       1  <0>         0.0777
     42 H9         41.8365   54.5651   34.4924 H       1  <0>         0.0777
     43 H10        43.9593   54.4865   31.5545 H       1  <0>         0.0777
     44 H11        42.9679   55.5105   32.6477 H       1  <0>         0.0777
     45 H12        44.5126   54.8047   33.2334 H       1  <0>         0.0777
     46 H13        40.2813   58.1944   32.6725 H       1  <0>         0.0618
     47 H14        34.5105   57.6794   31.7003 H       1  <0>         0.0618
     48 H15        42.7035   58.0385   33.2392 H       1  <0>         0.0618
     49 H16        35.7252   56.3754   29.9277 H       1  <0>         0.0618
     50 H17        38.5553   57.5729   34.3794 H       1  <0>         0.0624
     51 H18        35.1098   57.3736   34.1318 H       1  <0>         0.0624
     52 H19        43.4564   57.2444   35.4812 H       1  <0>         0.0636
     53 H20        37.5468   54.7580   30.5439 H       1  <0>         0.0636
     54 H21        40.5719   54.5627   31.2075 H       1  <0>         0.0332
     55 H22        40.7328   54.8797   32.9754 H       1  <0>         0.0332
     56 H23        38.6926   53.2652   31.4821 H       1  <0>         0.0469
     57 H24        39.3130   52.5088   32.9950 H       1  <0>         0.0469
     58 H25        41.2710   52.1730   32.7695 H       1  <0>         0.0815
     59 H26        42.0226   52.8705   31.2614 H       1  <0>         0.0815
     60 H27        42.4522   56.3383   37.9815 H       1  <0>         0.1519
     61 H28        35.0006   56.6595   38.8675 H       1  <0>         0.1581
     62 H29        43.5377   52.6652   32.9513 H       1  <0>         0.2028
@<TRIPOS>BOND
     1     1    16    1
     2     2    17    1
     3     3    31    1
     4     4    31    1
     5     5     7   ar
     6     5     9   ar
     7     6     8   ar
     8     6    10   ar
     9     7    11   ar
    10     8    12   ar
    11     9    18   ar
    12    10    19   ar
    13    11    20   ar
    14    12    21   ar
    15    13    14    1
    16    13    15    1
    17    14    30    1
    18    15    31    1
    19    16    22    2
    20    16    28    1
    21    17    23    2
    22    17    30    1
    23    18    20   ar
    24    18    22    1
    25    19    21   ar
    26    19    23    1
    27    20    28    1
    28    21    30    1
    29    22    24    1
    30    23    25    1
    31    24    25    2
    32    24    26    1
    33    25    27    1
    34    26    29   am
    35    26    32    2
    36    27    29   am
    37    27    33    2
    38     1    34    1
    39     1    35    1
    40     1    36    1
    41     2    37    1
    42     2    38    1
    43     2    39    1
    44     3    40    1
    45     3    41    1
    46     3    42    1
    47     4    43    1
    48     4    44    1
    49     4    45    1
    50     5    46    1
    51     6    47    1
    52     7    48    1
    53     8    49    1
    54     9    50    1
    55    10    51    1
    56    11    52    1
    57    12    53    1
    58    13    54    1
    59    13    55    1
    60    14    56    1
    61    14    57    1
    62    15    58    1
    63    15    59    1
    64    28    60    1
    65    29    61    1
    66    31    62    1
@<TRIPOS>SUBSTRUCTURE
     1 <0>         1 TEMP              0 ****  ****    0 ROOT

