
##########                                Name:        PDS_901_2I0E
##########                    Molecular_Weight:             441.553
##########                DOCK_Rotatable_Bonds:                   6
##########                       Formal_Charge:              0.9995
##########                     HBond_Acceptors:                   6
##########                        HBond_Donors:                   3
##########                         Heavy_Atoms:                  33
##########                            HA_RMSDs:               1.239
##########                            HA_RMSDh:               1.239
##########                            HA_RMSDm:               1.119
##########                          Grid_Score:         -115.209656
##########                     Grid_vdw_energy:          -57.261711
##########                      Grid_es_energy:          -57.947948
##########           Internal_energy_repulsive:           25.941517

@<TRIPOS>MOLECULE
PDS_901_2I0E
 62 66 1 0 0
SMALL
USER_CHARGES


@<TRIPOS>ATOM
      1 C1         41.0578   55.4183   39.2889 C.3     1  <0>        -0.0259
      2 C2         39.3752   53.3944   35.6751 C.3     1  <0>        -0.0257
      3 C3         42.6472   53.4870   33.8149 C.3     1  <0>        -0.0433
      4 C4         42.8633   54.8736   31.8866 C.3     1  <0>        -0.0433
      5 C5         41.1879   57.5349   33.4865 C.ar    1  <0>        -0.0611
      6 C6         35.7979   56.9021   32.1337 C.ar    1  <0>        -0.0611
      7 C7         42.5666   57.2670   33.7084 C.ar    1  <0>        -0.0600
      8 C8         36.3192   55.9910   31.1440 C.ar    1  <0>        -0.0600
      9 C9         40.2426   57.2838   34.5347 C.ar    1  <0>        -0.0522
     10 C10        36.1975   56.7713   33.5169 C.ar    1  <0>        -0.0522
     11 C11        43.0361   56.7458   34.9456 C.ar    1  <0>        -0.0400
     12 C12        37.2339   54.9510   31.5040 C.ar    1  <0>        -0.0398
     13 C13        40.2298   53.4845   31.7261 C.3     1  <0>         0.0036
     14 C14        39.1569   52.8775   32.6740 C.3     1  <0>         0.0218
     15 C15        41.5653   52.7257   31.8293 C.3     1  <0>        -0.0309
     16 C16        41.0880   55.9228   37.9072 C.2     1  <0>         0.0136
     17 C17        38.5362   54.2093   34.8038 C.2     1  <0>         0.0163
     18 C18        40.6593   56.7655   35.8182 C.ar    1  <0>         0.0054
     19 C19        37.1114   55.7363   33.9146 C.ar    1  <0>         0.0057
     20 C20        42.0954   56.4919   36.0027 C.ar    1  <0>         0.0390
     21 C21        37.6287   54.8273   32.8800 C.ar    1  <0>         0.0416
     22 C22        40.0327   56.3879   37.0590 C.2     1  <0>         0.0135
     23 C23        37.7084   55.3386   35.1295 C.2     1  <0>         0.0137
     24 C24        38.5273   56.4461   37.3708 C.2     1  <0>         0.0590
     25 C25        37.5140   55.9796   36.5143 C.2     1  <0>         0.0590
     26 C26        37.9898   56.9516   38.5754 C.2     1  <0>         0.2519
     27 C27        36.2123   56.1890   37.1028 C.2     1  <0>         0.2519
     28 N1         42.2843   55.9922   37.2623 N.pl3   1  <0>        -0.3170
     29 N2         36.5710   56.7747   38.3704 N.am    1  <0>        -0.2483
     30 N3         38.4758   53.9362   33.4475 N.pl3   1  <0>        -0.3026
     31 N4         42.7379   53.4672   32.3422 N.4     1  <0>         0.2309
     32 O1         38.5591   57.4183   39.5361 O.2     1  <0>        -0.2697
     33 O2         35.0947   55.9177   36.6373 O.2     1  <0>        -0.2697
     34 H1         40.9132   54.3278   39.2786 H       1  <0>         0.0290
     35 H2         42.0090   55.6572   39.7871 H       1  <0>         0.0290
     36 H3         40.2287   55.8928   39.8343 H       1  <0>         0.0290
     37 H4         38.7888   52.5487   36.0635 H       1  <0>         0.0290
     38 H5         40.2347   53.0131   35.1042 H       1  <0>         0.0290
     39 H6         39.7353   54.0070   36.5147 H       1  <0>         0.0290
     40 H7         42.5528   52.4576   34.1909 H       1  <0>         0.0777
     41 H8         43.5549   53.9477   34.2319 H       1  <0>         0.0777
     42 H9         41.7662   54.0709   34.1200 H       1  <0>         0.0777
     43 H10        42.9336   54.8993   30.7892 H       1  <0>         0.0777
     44 H11        41.9801   55.4439   32.2106 H       1  <0>         0.0777
     45 H12        43.7689   55.3207   32.3224 H       1  <0>         0.0777
     46 H13        40.8555   57.9245   32.5357 H       1  <0>         0.0618
     47 H14        35.1095   57.6812   31.8415 H       1  <0>         0.0618
     48 H15        43.2752   57.4642   32.9175 H       1  <0>         0.0618
     49 H16        36.0140   56.0958   30.1134 H       1  <0>         0.0618
     50 H17        39.1960   57.4864   34.3615 H       1  <0>         0.0624
     51 H18        35.8069   57.4555   34.2555 H       1  <0>         0.0624
     52 H19        44.0872   56.5431   35.0893 H       1  <0>         0.0636
     53 H20        37.6195   54.2731   30.7569 H       1  <0>         0.0636
     54 H21        39.8650   53.4214   30.6903 H       1  <0>         0.0332
     55 H22        40.3962   54.5354   32.0051 H       1  <0>         0.0332
     56 H23        38.4109   52.3385   32.0714 H       1  <0>         0.0469
     57 H24        39.6478   52.1837   33.3723 H       1  <0>         0.0469
     58 H25        41.3992   51.8801   32.5130 H       1  <0>         0.0815
     59 H26        41.8201   52.3898   30.8134 H       1  <0>         0.0815
     60 H27        43.1653   55.7202   37.6493 H       1  <0>         0.1519
     61 H28        35.8907   57.0379   39.0543 H       1  <0>         0.1581
     62 H29        43.5393   52.9883   31.9839 H       1  <0>         0.2028
@<TRIPOS>BOND
     1     1    16    1
     2     2    17    1
     3     3    31    1
     4     4    31    1
     5     5     7   ar
     6     5     9   ar
     7     6     8   ar
     8     6    10   ar
     9     7    11   ar
    10     8    12   ar
    11     9    18   ar
    12    10    19   ar
    13    11    20   ar
    14    12    21   ar
    15    13    14    1
    16    13    15    1
    17    14    30    1
    18    15    31    1
    19    16    22    2
    20    16    28    1
    21    17    23    2
    22    17    30    1
    23    18    20   ar
    24    18    22    1
    25    19    21   ar
    26    19    23    1
    27    20    28    1
    28    21    30    1
    29    22    24    1
    30    23    25    1
    31    24    25    2
    32    24    26    1
    33    25    27    1
    34    26    29   am
    35    26    32    2
    36    27    29   am
    37    27    33    2
    38     1    34    1
    39     1    35    1
    40     1    36    1
    41     2    37    1
    42     2    38    1
    43     2    39    1
    44     3    40    1
    45     3    41    1
    46     3    42    1
    47     4    43    1
    48     4    44    1
    49     4    45    1
    50     5    46    1
    51     6    47    1
    52     7    48    1
    53     8    49    1
    54     9    50    1
    55    10    51    1
    56    11    52    1
    57    12    53    1
    58    13    54    1
    59    13    55    1
    60    14    56    1
    61    14    57    1
    62    15    58    1
    63    15    59    1
    64    28    60    1
    65    29    61    1
    66    31    62    1
@<TRIPOS>SUBSTRUCTURE
     1 <0>         1 TEMP              0 ****  ****    0 ROOT

