Z1893460093
  MJ210100                      

 32 35  0  0  0  0  0  0  0  0999 V2000
    2.2268   -6.6128    0.0000 O   0  0  0  0  0  0  0  0  0  0  0  0
    2.2268   -7.4378    0.0000 C   0  0  0  0  0  0  0  0  0  0  0  0
    1.5123   -7.8503    0.0000 N   0  0  0  0  0  0  0  0  0  0  0  0
    0.7978   -7.4378    0.0000 C   0  0  0  0  0  0  0  0  0  0  0  0
    0.0834   -7.8503    0.0000 C   0  0  0  0  0  0  0  0  0  0  0  0
   -0.6310   -7.4378    0.0000 C   0  0  0  0  0  0  0  0  0  0  0  0
   -1.3455   -7.8503    0.0000 C   0  0  0  0  0  0  0  0  0  0  0  0
   -1.3455   -8.6753    0.0000 C   0  0  0  0  0  0  0  0  0  0  0  0
   -2.0599   -9.0878    0.0000 C   0  0  0  0  0  0  0  0  0  0  0  0
   -2.7744   -8.6753    0.0000 C   0  0  0  0  0  0  0  0  0  0  0  0
   -2.7744   -7.8503    0.0000 C   0  0  0  0  0  0  0  0  0  0  0  0
   -2.0599   -7.4378    0.0000 C   0  0  0  0  0  0  0  0  0  0  0  0
    0.7978   -6.6128    0.0000 C   0  0  0  0  0  0  0  0  0  0  0  0
    0.0834   -6.2003    0.0000 C   0  0  0  0  0  0  0  0  0  0  0  0
    0.0834   -5.3753    0.0000 C   0  0  0  0  0  0  0  0  0  0  0  0
    0.7978   -4.9628    0.0000 C   0  0  0  0  0  0  0  0  0  0  0  0
    1.5123   -5.3753    0.0000 C   0  0  0  0  0  0  0  0  0  0  0  0
    1.5123   -6.2003    0.0000 C   0  0  0  0  0  0  0  0  0  0  0  0
    2.9412   -7.8503    0.0000 C   0  0  0  0  0  0  0  0  0  0  0  0
    2.9412   -8.6753    0.0000 O   0  0  0  0  0  0  0  0  0  0  0  0
    3.6557   -7.4378    0.0000 N   0  0  0  0  0  0  0  0  0  0  0  0
    4.3702   -7.8503    0.0000 C   0  0  0  0  0  0  0  0  0  0  0  0
    5.1239   -7.5147    0.0000 N   0  0  0  0  0  0  0  0  0  0  0  0
    5.6759   -8.1278    0.0000 N   0  0  0  0  0  0  0  0  0  0  0  0
    5.2634   -8.8423    0.0000 C   0  0  0  0  0  0  0  0  0  0  0  0
    4.4565   -8.6708    0.0000 C   0  0  0  0  0  0  0  0  0  0  0  0
    6.4964   -8.0416    0.0000 C   0  0  0  0  0  0  0  0  0  0  0  0
    6.8320   -7.2879    0.0000 C   0  0  0  0  0  0  0  0  0  0  0  0
    7.6524   -7.2017    0.0000 C   0  0  0  0  0  0  0  0  0  0  0  0
    8.1373   -7.8691    0.0000 C   0  0  0  0  0  0  0  0  0  0  0  0
    7.8018   -8.6228    0.0000 C   0  0  0  0  0  0  0  0  0  0  0  0
    6.9813   -8.7090    0.0000 C   0  0  0  0  0  0  0  0  0  0  0  0
  1  2  2  0  0  0  0
  2  3  1  0  0  0  0
  3  4  1  0  0  0  0
  4  5  1  0  0  0  0
  5  6  1  0  0  0  0
  6  7  1  0  0  0  0
  7  8  2  0  0  0  0
  8  9  1  0  0  0  0
  9 10  2  0  0  0  0
 10 11  1  0  0  0  0
 11 12  2  0  0  0  0
  7 12  1  0  0  0  0
  4 13  1  0  0  0  0
 13 14  2  0  0  0  0
 14 15  1  0  0  0  0
 15 16  2  0  0  0  0
 16 17  1  0  0  0  0
 17 18  2  0  0  0  0
 13 18  1  0  0  0  0
  2 19  1  0  0  0  0
 19 20  2  0  0  0  0
 19 21  1  0  0  0  0
 21 22  1  0  0  0  0
 22 23  2  0  0  0  0
 23 24  1  0  0  0  0
 24 25  1  0  0  0  0
 25 26  2  0  0  0  0
 22 26  1  0  0  0  0
 24 27  1  0  0  0  0
 27 28  1  0  0  0  0
 28 29  1  0  0  0  0
 29 30  1  0  0  0  0
 30 31  1  0  0  0  0
 31 32  1  0  0  0  0
 27 32  1  0  0  0  0
M  END
