Z4121493648
          05302416093D 1   1.00000     0.00000     0
            
 65 67  0  0  0  0            999 V2000
   -0.4626    1.2925    1.2925 C   0  0  0  0  0  0  0  0  0  0  0  0
    1.0000    1.0000    1.0000 C   0  0  3  0  0  0  0  0  0  0  0  0
    1.2925    1.2925   -0.4626 C   0  0  0  0  0  0  0  0  0  0  0  0
    0.4150    0.4150   -1.3402 C   0  0  0  0  0  0  0  0  0  0  0  0
    0.7075    0.7075   -2.8028 C   0  0  0  0  0  0  0  0  0  0  0  0
   -0.1701   -0.1701   -3.6804 C   0  0  0  0  0  0  0  0  0  0  0  0
    0.4150    2.1701   -3.0953 C   0  0  0  0  0  0  0  0  0  0  0  0
    2.1701    0.4150   -3.0953 C   0  0  0  0  0  0  0  0  0  0  0  0
    1.8776    1.8776    1.8776 C   0  0  0  0  0  0  0  0  0  0  0  0
    2.6482    2.6482    1.3755 O   0  0  0  0  0  0  0  0  0  0  0  0
    1.7868    1.7868    3.2715 N   0  0  0  0  0  0  0  0  0  0  0  0
    0.8861    0.8952    4.0064 C   0  0  0  0  0  0  0  0  0  0  0  0
    1.6391    0.5925    5.2887 C   0  0  0  0  0  0  0  0  0  0  0  0
    2.8172    1.5532    5.3224 C   0  0  0  0  0  0  0  0  0  0  0  0
    2.5712    2.5712    4.2274 C   0  0  2  0  0  0  0  0  0  0  0  0
    1.8078    3.8085    4.6872 C   0  0  0  0  0  0  0  0  0  0  0  0
    2.6299    4.5644    5.6430 N   0  0  0  0  0  0  0  0  0  0  0  0
    3.6249    5.3892    5.1884 C   0  0  0  0  0  0  0  0  0  0  0  0
    3.8253    5.4946    4.0100 O   0  0  0  0  0  0  0  0  0  0  0  0
    4.4755    6.1713    6.1774 C   0  0  2  0  0  0  0  0  0  0  0  0
    3.5637    7.0545    7.0162 C   0  0  0  0  0  0  0  0  0  0  0  0
    4.0130    8.5034    6.9603 C   0  0  1  0  0  0  0  0  0  0  0  0
    5.4668    8.6486    7.3809 C   0  0  0  0  0  0  0  0  0  0  0  0
    6.3468    7.7419    6.5373 C   0  0  0  0  0  0  0  0  0  0  0  0
    5.5228    7.0270    5.4771 C   0  0  2  0  0  0  0  0  0  0  0  0
    4.8244    8.1542    4.7444 C   0  0  0  0  0  0  0  0  0  0  0  0
    4.0665    8.9089    5.5036 C   0  0  0  0  0  0  0  0  0  0  0  0
   -1.0400    0.7152    0.7152 H   0  0  0  0  0  0  0  0  0  0  0  0
   -0.6551    1.1001    2.2548 H   0  0  0  0  0  0  0  0  0  0  0  0
   -0.6551    2.2548    1.1001 H   0  0  0  0  0  0  0  0  0  0  0  0
    1.1925    0.0377    1.1925 H   0  0  0  0  0  0  0  0  0  0  0  0
    2.2548    1.1001   -0.6551 H   0  0  0  0  0  0  0  0  0  0  0  0
    1.1001    2.2548   -0.6551 H   0  0  0  0  0  0  0  0  0  0  0  0
    0.6074   -0.5473   -1.1477 H   0  0  0  0  0  0  0  0  0  0  0  0
   -0.5473    0.6074   -1.1477 H   0  0  0  0  0  0  0  0  0  0  0  0
    0.0224    0.0224   -4.6426 H   0  0  0  0  0  0  0  0  0  0  0  0
    0.0224   -1.1323   -3.4879 H   0  0  0  0  0  0  0  0  0  0  0  0
   -1.1323    0.0224   -3.4879 H   0  0  0  0  0  0  0  0  0  0  0  0
    0.6074    2.3625   -4.0576 H   0  0  0  0  0  0  0  0  0  0  0  0
   -0.5473    2.3625   -2.9029 H   0  0  0  0  0  0  0  0  0  0  0  0
    0.9923    2.7474   -2.5180 H   0  0  0  0  0  0  0  0  0  0  0  0
    2.3625    0.6074   -4.0576 H   0  0  0  0  0  0  0  0  0  0  0  0
    2.7474    0.9923   -2.5180 H   0  0  0  0  0  0  0  0  0  0  0  0
    2.3625   -0.5473   -2.9029 H   0  0  0  0  0  0  0  0  0  0  0  0
    0.7142    0.0572    3.4884 H   0  0  0  0  0  0  0  0  0  0  0  0
    0.0174    1.3499    4.2028 H   0  0  0  0  0  0  0  0  0  0  0  0
    1.9628   -0.3537    5.2860 H   0  0  0  0  0  0  0  0  0  0  0  0
    1.0479    0.7403    6.0815 H   0  0  0  0  0  0  0  0  0  0  0  0
    2.8675    2.0075    6.2119 H   0  0  0  0  0  0  0  0  0  0  0  0
    3.6703    1.0604    5.1511 H   0  0  0  0  0  0  0  0  0  0  0  0
    3.4402    2.8420    3.8133 H   0  0  0  0  0  0  0  0  0  0  0  0
    1.6005    4.3850    3.8968 H   0  0  0  0  0  0  0  0  0  0  0  0
    0.9552    3.5291    5.1288 H   0  0  0  0  0  0  0  0  0  0  0  0
    2.4629    4.4766    6.6251 H   0  0  0  0  0  0  0  0  0  0  0  0
    4.9411    5.5249    6.7819 H   0  0  0  0  0  0  0  0  0  0  0  0
    3.5867    6.7408    7.9655 H   0  0  0  0  0  0  0  0  0  0  0  0
    2.6296    6.9874    6.6656 H   0  0  0  0  0  0  0  0  0  0  0  0
    3.4109    9.1002    7.4906 H   0  0  0  0  0  0  0  0  0  0  0  0
    5.5594    8.3966    8.3442 H   0  0  0  0  0  0  0  0  0  0  0  0
    5.7542    9.5982    7.2557 H   0  0  0  0  0  0  0  0  0  0  0  0
    7.0513    8.2924    6.0895 H   0  0  0  0  0  0  0  0  0  0  0  0
    6.7806    7.0625    7.1291 H   0  0  0  0  0  0  0  0  0  0  0  0
    6.0966    6.4843    4.8638 H   0  0  0  0  0  0  0  0  0  0  0  0
    4.9324    8.3101    3.7626 H   0  0  0  0  0  0  0  0  0  0  0  0
    3.5613    9.6943    5.1460 H   0  0  0  0  0  0  0  0  0  0  0  0
  1  2  1  0  0  0  0
  2  3  1  0  0  0  0
  2  9  1  0  0  0  0
  3  4  1  0  0  0  0
  4  5  1  0  0  0  0
  5  6  1  0  0  0  0
  5  7  1  0  0  0  0
  5  8  1  0  0  0  0
  9 10  2  0  0  0  0
  9 11  1  0  0  0  0
 11 12  1  0  0  0  0
 12 13  1  0  0  0  0
 13 14  1  0  0  0  0
 15 14  1  0  0  0  0
 15 11  1  0  0  0  0
 15 16  1  0  0  0  0
 16 17  1  0  0  0  0
 17 18  1  0  0  0  0
 18 19  2  0  0  0  0
 20 18  1  0  0  0  0
 20 21  1  0  0  0  0
 20 25  1  0  0  0  0
 22 21  1  0  0  0  0
 22 23  1  0  0  0  0
 22 27  1  0  0  0  0
 23 24  1  0  0  0  0
 25 24  1  0  0  0  0
 25 26  1  0  0  0  0
 26 27  2  0  0  0  0
  1 28  1  0  0  0  0
  1 29  1  0  0  0  0
  1 30  1  0  0  0  0
  2 31  1  0  0  0  0
  3 32  1  0  0  0  0
  3 33  1  0  0  0  0
  4 34  1  0  0  0  0
  4 35  1  0  0  0  0
  6 36  1  0  0  0  0
  6 37  1  0  0  0  0
  6 38  1  0  0  0  0
  7 39  1  0  0  0  0
  7 40  1  0  0  0  0
  7 41  1  0  0  0  0
  8 42  1  0  0  0  0
  8 43  1  0  0  0  0
  8 44  1  0  0  0  0
 12 45  1  0  0  0  0
 12 46  1  0  0  0  0
 13 47  1  0  0  0  0
 13 48  1  0  0  0  0
 14 49  1  0  0  0  0
 14 50  1  0  0  0  0
 15 51  1  0  0  0  0
 16 52  1  0  0  0  0
 16 53  1  0  0  0  0
 17 54  1  0  0  0  0
 20 55  1  0  0  0  0
 21 56  1  0  0  0  0
 21 57  1  0  0  0  0
 22 58  1  0  0  0  0
 23 59  1  0  0  0  0
 23 60  1  0  0  0  0
 24 61  1  0  0  0  0
 24 62  1  0  0  0  0
 25 63  1  0  0  0  0
 26 64  1  0  0  0  0
 27 65  1  0  0  0  0
M  END
$$$$
Z4121493648
          05302416093D 1   1.00000     0.00000     0
            
 65 67  0  0  0  0            999 V2000
   -0.4626    1.2925    1.2925 C   0  0  0  0  0  0  0  0  0  0  0  0
    1.0000    1.0000    1.0000 C   0  0  3  0  0  0  0  0  0  0  0  0
    1.2925    1.2925   -0.4626 C   0  0  0  0  0  0  0  0  0  0  0  0
    0.4150    0.4150   -1.3402 C   0  0  0  0  0  0  0  0  0  0  0  0
    0.7075    0.7075   -2.8028 C   0  0  0  0  0  0  0  0  0  0  0  0
   -0.1701   -0.1701   -3.6804 C   0  0  0  0  0  0  0  0  0  0  0  0
    0.4150    2.1701   -3.0953 C   0  0  0  0  0  0  0  0  0  0  0  0
    2.1701    0.4150   -3.0953 C   0  0  0  0  0  0  0  0  0  0  0  0
    1.8776    1.8776    1.8776 C   0  0  0  0  0  0  0  0  0  0  0  0
    2.6482    2.6482    1.3755 O   0  0  0  0  0  0  0  0  0  0  0  0
    1.7868    1.7868    3.2715 N   0  0  0  0  0  0  0  0  0  0  0  0
    0.8861    0.8952    4.0064 C   0  0  0  0  0  0  0  0  0  0  0  0
    1.6391    0.5925    5.2887 C   0  0  0  0  0  0  0  0  0  0  0  0
    2.8172    1.5532    5.3224 C   0  0  0  0  0  0  0  0  0  0  0  0
    2.5712    2.5712    4.2274 C   0  0  2  0  0  0  0  0  0  0  0  0
    1.8078    3.8085    4.6872 C   0  0  0  0  0  0  0  0  0  0  0  0
    2.6299    4.5644    5.6430 N   0  0  0  0  0  0  0  0  0  0  0  0
    3.6249    5.3892    5.1884 C   0  0  0  0  0  0  0  0  0  0  0  0
    3.8253    5.4946    4.0100 O   0  0  0  0  0  0  0  0  0  0  0  0
    4.4755    6.1713    6.1774 C   0  0  2  0  0  0  0  0  0  0  0  0
    5.2184    5.1877    7.0694 C   0  0  0  0  0  0  0  0  0  0  0  0
    4.9582    5.4838    8.5353 C   0  0  1  0  0  0  0  0  0  0  0  0
    5.3109    6.9219    8.8806 C   0  0  0  0  0  0  0  0  0  0  0  0
    4.5675    7.8762    7.9615 C   0  0  0  0  0  0  0  0  0  0  0  0
    3.6366    7.1123    7.0320 C   0  0  2  0  0  0  0  0  0  0  0  0
    2.7837    6.2887    7.9750 C   0  0  0  0  0  0  0  0  0  0  0  0
    3.4598    5.4700    8.7449 C   0  0  0  0  0  0  0  0  0  0  0  0
   -1.0400    0.7152    0.7152 H   0  0  0  0  0  0  0  0  0  0  0  0
   -0.6551    1.1001    2.2548 H   0  0  0  0  0  0  0  0  0  0  0  0
   -0.6551    2.2548    1.1001 H   0  0  0  0  0  0  0  0  0  0  0  0
    1.1925    0.0377    1.1925 H   0  0  0  0  0  0  0  0  0  0  0  0
    2.2548    1.1001   -0.6551 H   0  0  0  0  0  0  0  0  0  0  0  0
    1.1001    2.2548   -0.6551 H   0  0  0  0  0  0  0  0  0  0  0  0
    0.6074   -0.5473   -1.1477 H   0  0  0  0  0  0  0  0  0  0  0  0
   -0.5473    0.6074   -1.1477 H   0  0  0  0  0  0  0  0  0  0  0  0
    0.0224    0.0224   -4.6426 H   0  0  0  0  0  0  0  0  0  0  0  0
    0.0224   -1.1323   -3.4879 H   0  0  0  0  0  0  0  0  0  0  0  0
   -1.1323    0.0224   -3.4879 H   0  0  0  0  0  0  0  0  0  0  0  0
    0.6074    2.3625   -4.0576 H   0  0  0  0  0  0  0  0  0  0  0  0
   -0.5473    2.3625   -2.9029 H   0  0  0  0  0  0  0  0  0  0  0  0
    0.9923    2.7474   -2.5180 H   0  0  0  0  0  0  0  0  0  0  0  0
    2.3625    0.6074   -4.0576 H   0  0  0  0  0  0  0  0  0  0  0  0
    2.7474    0.9923   -2.5180 H   0  0  0  0  0  0  0  0  0  0  0  0
    2.3625   -0.5473   -2.9029 H   0  0  0  0  0  0  0  0  0  0  0  0
    0.7142    0.0572    3.4884 H   0  0  0  0  0  0  0  0  0  0  0  0
    0.0174    1.3499    4.2028 H   0  0  0  0  0  0  0  0  0  0  0  0
    1.9628   -0.3537    5.2860 H   0  0  0  0  0  0  0  0  0  0  0  0
    1.0479    0.7403    6.0815 H   0  0  0  0  0  0  0  0  0  0  0  0
    2.8675    2.0075    6.2119 H   0  0  0  0  0  0  0  0  0  0  0  0
    3.6703    1.0604    5.1511 H   0  0  0  0  0  0  0  0  0  0  0  0
    3.4402    2.8420    3.8133 H   0  0  0  0  0  0  0  0  0  0  0  0
    1.6005    4.3850    3.8968 H   0  0  0  0  0  0  0  0  0  0  0  0
    0.9552    3.5291    5.1288 H   0  0  0  0  0  0  0  0  0  0  0  0
    2.4629    4.4766    6.6251 H   0  0  0  0  0  0  0  0  0  0  0  0
    5.1452    6.7115    5.6678 H   0  0  0  0  0  0  0  0  0  0  0  0
    6.1995    5.2593    6.8899 H   0  0  0  0  0  0  0  0  0  0  0  0
    4.9086    4.2596    6.8627 H   0  0  0  0  0  0  0  0  0  0  0  0
    5.4236    4.8325    9.1346 H   0  0  0  0  0  0  0  0  0  0  0  0
    6.2957    7.0565    8.7706 H   0  0  0  0  0  0  0  0  0  0  0  0
    5.0530    7.1073    9.8287 H   0  0  0  0  0  0  0  0  0  0  0  0
    4.0295    8.5122    8.5147 H   0  0  0  0  0  0  0  0  0  0  0  0
    5.2299    8.3880    7.4146 H   0  0  0  0  0  0  0  0  0  0  0  0
    3.0827    7.7285    6.4721 H   0  0  0  0  0  0  0  0  0  0  0  0
    1.7870    6.3631    8.0077 H   0  0  0  0  0  0  0  0  0  0  0  0
    3.0176    4.8802    9.4207 H   0  0  0  0  0  0  0  0  0  0  0  0
  1  2  1  0  0  0  0
  2  3  1  0  0  0  0
  2  9  1  0  0  0  0
  3  4  1  0  0  0  0
  4  5  1  0  0  0  0
  5  6  1  0  0  0  0
  5  7  1  0  0  0  0
  5  8  1  0  0  0  0
  9 10  2  0  0  0  0
  9 11  1  0  0  0  0
 11 12  1  0  0  0  0
 12 13  1  0  0  0  0
 13 14  1  0  0  0  0
 15 14  1  0  0  0  0
 15 11  1  0  0  0  0
 15 16  1  0  0  0  0
 16 17  1  0  0  0  0
 17 18  1  0  0  0  0
 18 19  2  0  0  0  0
 20 18  1  0  0  0  0
 20 21  1  0  0  0  0
 20 25  1  0  0  0  0
 22 21  1  0  0  0  0
 22 23  1  0  0  0  0
 22 27  1  0  0  0  0
 23 24  1  0  0  0  0
 25 24  1  0  0  0  0
 25 26  1  0  0  0  0
 26 27  2  0  0  0  0
  1 28  1  0  0  0  0
  1 29  1  0  0  0  0
  1 30  1  0  0  0  0
  2 31  1  0  0  0  0
  3 32  1  0  0  0  0
  3 33  1  0  0  0  0
  4 34  1  0  0  0  0
  4 35  1  0  0  0  0
  6 36  1  0  0  0  0
  6 37  1  0  0  0  0
  6 38  1  0  0  0  0
  7 39  1  0  0  0  0
  7 40  1  0  0  0  0
  7 41  1  0  0  0  0
  8 42  1  0  0  0  0
  8 43  1  0  0  0  0
  8 44  1  0  0  0  0
 12 45  1  0  0  0  0
 12 46  1  0  0  0  0
 13 47  1  0  0  0  0
 13 48  1  0  0  0  0
 14 49  1  0  0  0  0
 14 50  1  0  0  0  0
 15 51  1  0  0  0  0
 16 52  1  0  0  0  0
 16 53  1  0  0  0  0
 17 54  1  0  0  0  0
 20 55  1  0  0  0  0
 21 56  1  0  0  0  0
 21 57  1  0  0  0  0
 22 58  1  0  0  0  0
 23 59  1  0  0  0  0
 23 60  1  0  0  0  0
 24 61  1  0  0  0  0
 24 62  1  0  0  0  0
 25 63  1  0  0  0  0
 26 64  1  0  0  0  0
 27 65  1  0  0  0  0
M  END
$$$$
Z4121493648
          05302416093D 1   1.00000     0.00000     0
            
 65 67  0  0  0  0            999 V2000
   -0.4626    1.2925    1.2925 C   0  0  0  0  0  0  0  0  0  0  0  0
    1.0000    1.0000    1.0000 C   0  0  3  0  0  0  0  0  0  0  0  0
    1.2925    1.2925   -0.4626 C   0  0  0  0  0  0  0  0  0  0  0  0
    0.4150    0.4150   -1.3402 C   0  0  0  0  0  0  0  0  0  0  0  0
    0.7075    0.7075   -2.8028 C   0  0  0  0  0  0  0  0  0  0  0  0
   -0.1701   -0.1701   -3.6804 C   0  0  0  0  0  0  0  0  0  0  0  0
    0.4150    2.1701   -3.0953 C   0  0  0  0  0  0  0  0  0  0  0  0
    2.1701    0.4150   -3.0953 C   0  0  0  0  0  0  0  0  0  0  0  0
    1.8776    1.8776    1.8776 C   0  0  0  0  0  0  0  0  0  0  0  0
    2.6482    2.6482    1.3755 O   0  0  0  0  0  0  0  0  0  0  0  0
    1.7868    1.7868    3.2715 N   0  0  0  0  0  0  0  0  0  0  0  0
    0.8861    0.8952    4.0064 C   0  0  0  0  0  0  0  0  0  0  0  0
    1.6391    0.5925    5.2887 C   0  0  0  0  0  0  0  0  0  0  0  0
    2.8172    1.5532    5.3224 C   0  0  0  0  0  0  0  0  0  0  0  0
    2.5712    2.5712    4.2274 C   0  0  2  0  0  0  0  0  0  0  0  0
    1.8078    3.8085    4.6872 C   0  0  0  0  0  0  0  0  0  0  0  0
    2.6299    4.5644    5.6430 N   0  0  0  0  0  0  0  0  0  0  0  0
    3.6249    5.3892    5.1884 C   0  0  0  0  0  0  0  0  0  0  0  0
    3.8253    5.4946    4.0100 O   0  0  0  0  0  0  0  0  0  0  0  0
    4.4755    6.1713    6.1774 C   0  0  2  0  0  0  0  0  0  0  0  0
    5.4659    7.0271    5.4018 C   0  0  0  0  0  0  0  0  0  0  0  0
    6.8874    6.7630    5.8644 C   0  0  1  0  0  0  0  0  0  0  0  0
    7.0291    6.9711    7.3638 C   0  0  0  0  0  0  0  0  0  0  0  0
    6.0158    6.1173    8.1069 C   0  0  0  0  0  0  0  0  0  0  0  0
    5.2241    5.2545    7.1358 C   0  0  2  0  0  0  0  0  0  0  0  0
    6.2933    4.5076    6.3650 C   0  0  0  0  0  0  0  0  0  0  0  0
    7.1431    5.2779    5.7289 C   0  0  0  0  0  0  0  0  0  0  0  0
   -1.0400    0.7152    0.7152 H   0  0  0  0  0  0  0  0  0  0  0  0
   -0.6551    1.1001    2.2548 H   0  0  0  0  0  0  0  0  0  0  0  0
   -0.6551    2.2548    1.1001 H   0  0  0  0  0  0  0  0  0  0  0  0
    1.1925    0.0377    1.1925 H   0  0  0  0  0  0  0  0  0  0  0  0
    2.2548    1.1001   -0.6551 H   0  0  0  0  0  0  0  0  0  0  0  0
    1.1001    2.2548   -0.6551 H   0  0  0  0  0  0  0  0  0  0  0  0
    0.6074   -0.5473   -1.1477 H   0  0  0  0  0  0  0  0  0  0  0  0
   -0.5473    0.6074   -1.1477 H   0  0  0  0  0  0  0  0  0  0  0  0
    0.0224    0.0224   -4.6426 H   0  0  0  0  0  0  0  0  0  0  0  0
    0.0224   -1.1323   -3.4879 H   0  0  0  0  0  0  0  0  0  0  0  0
   -1.1323    0.0224   -3.4879 H   0  0  0  0  0  0  0  0  0  0  0  0
    0.6074    2.3625   -4.0576 H   0  0  0  0  0  0  0  0  0  0  0  0
   -0.5473    2.3625   -2.9029 H   0  0  0  0  0  0  0  0  0  0  0  0
    0.9923    2.7474   -2.5180 H   0  0  0  0  0  0  0  0  0  0  0  0
    2.3625    0.6074   -4.0576 H   0  0  0  0  0  0  0  0  0  0  0  0
    2.7474    0.9923   -2.5180 H   0  0  0  0  0  0  0  0  0  0  0  0
    2.3625   -0.5473   -2.9029 H   0  0  0  0  0  0  0  0  0  0  0  0
    0.7142    0.0572    3.4884 H   0  0  0  0  0  0  0  0  0  0  0  0
    0.0174    1.3499    4.2028 H   0  0  0  0  0  0  0  0  0  0  0  0
    1.9628   -0.3537    5.2860 H   0  0  0  0  0  0  0  0  0  0  0  0
    1.0479    0.7403    6.0815 H   0  0  0  0  0  0  0  0  0  0  0  0
    2.8675    2.0075    6.2119 H   0  0  0  0  0  0  0  0  0  0  0  0
    3.6703    1.0604    5.1511 H   0  0  0  0  0  0  0  0  0  0  0  0
    3.4402    2.8420    3.8133 H   0  0  0  0  0  0  0  0  0  0  0  0
    1.6005    4.3850    3.8968 H   0  0  0  0  0  0  0  0  0  0  0  0
    0.9552    3.5291    5.1288 H   0  0  0  0  0  0  0  0  0  0  0  0
    2.4629    4.4766    6.6251 H   0  0  0  0  0  0  0  0  0  0  0  0
    3.8788    6.7727    6.7087 H   0  0  0  0  0  0  0  0  0  0  0  0
    5.2484    7.9924    5.5466 H   0  0  0  0  0  0  0  0  0  0  0  0
    5.3929    6.8114    4.4281 H   0  0  0  0  0  0  0  0  0  0  0  0
    7.5526    7.3035    5.3493 H   0  0  0  0  0  0  0  0  0  0  0  0
    6.8721    7.9347    7.5804 H   0  0  0  0  0  0  0  0  0  0  0  0
    7.9521    6.7117    7.6481 H   0  0  0  0  0  0  0  0  0  0  0  0
    6.4966    5.5260    8.7543 H   0  0  0  0  0  0  0  0  0  0  0  0
    5.3860    6.7138    8.6044 H   0  0  0  0  0  0  0  0  0  0  0  0
    4.6053    4.6303    7.6127 H   0  0  0  0  0  0  0  0  0  0  0  0
    6.3466    3.5093    6.3429 H   0  0  0  0  0  0  0  0  0  0  0  0
    7.9040    4.9107    5.1939 H   0  0  0  0  0  0  0  0  0  0  0  0
  1  2  1  0  0  0  0
  2  3  1  0  0  0  0
  2  9  1  0  0  0  0
  3  4  1  0  0  0  0
  4  5  1  0  0  0  0
  5  6  1  0  0  0  0
  5  7  1  0  0  0  0
  5  8  1  0  0  0  0
  9 10  2  0  0  0  0
  9 11  1  0  0  0  0
 11 12  1  0  0  0  0
 12 13  1  0  0  0  0
 13 14  1  0  0  0  0
 15 14  1  0  0  0  0
 15 11  1  0  0  0  0
 15 16  1  0  0  0  0
 16 17  1  0  0  0  0
 17 18  1  0  0  0  0
 18 19  2  0  0  0  0
 20 18  1  0  0  0  0
 20 21  1  0  0  0  0
 20 25  1  0  0  0  0
 22 21  1  0  0  0  0
 22 23  1  0  0  0  0
 22 27  1  0  0  0  0
 23 24  1  0  0  0  0
 25 24  1  0  0  0  0
 25 26  1  0  0  0  0
 26 27  2  0  0  0  0
  1 28  1  0  0  0  0
  1 29  1  0  0  0  0
  1 30  1  0  0  0  0
  2 31  1  0  0  0  0
  3 32  1  0  0  0  0
  3 33  1  0  0  0  0
  4 34  1  0  0  0  0
  4 35  1  0  0  0  0
  6 36  1  0  0  0  0
  6 37  1  0  0  0  0
  6 38  1  0  0  0  0
  7 39  1  0  0  0  0
  7 40  1  0  0  0  0
  7 41  1  0  0  0  0
  8 42  1  0  0  0  0
  8 43  1  0  0  0  0
  8 44  1  0  0  0  0
 12 45  1  0  0  0  0
 12 46  1  0  0  0  0
 13 47  1  0  0  0  0
 13 48  1  0  0  0  0
 14 49  1  0  0  0  0
 14 50  1  0  0  0  0
 15 51  1  0  0  0  0
 16 52  1  0  0  0  0
 16 53  1  0  0  0  0
 17 54  1  0  0  0  0
 20 55  1  0  0  0  0
 21 56  1  0  0  0  0
 21 57  1  0  0  0  0
 22 58  1  0  0  0  0
 23 59  1  0  0  0  0
 23 60  1  0  0  0  0
 24 61  1  0  0  0  0
 24 62  1  0  0  0  0
 25 63  1  0  0  0  0
 26 64  1  0  0  0  0
 27 65  1  0  0  0  0
M  END
$$$$
Z4121493648
          05302416093D 1   1.00000     0.00000     0
            
 65 67  0  0  0  0            999 V2000
   -0.4626    1.2925    1.2925 C   0  0  0  0  0  0  0  0  0  0  0  0
    1.0000    1.0000    1.0000 C   0  0  3  0  0  0  0  0  0  0  0  0
    1.2925    1.2925   -0.4626 C   0  0  0  0  0  0  0  0  0  0  0  0
    0.4150    0.4150   -1.3402 C   0  0  0  0  0  0  0  0  0  0  0  0
    0.7075    0.7075   -2.8028 C   0  0  0  0  0  0  0  0  0  0  0  0
   -0.1701   -0.1701   -3.6804 C   0  0  0  0  0  0  0  0  0  0  0  0
    0.4150    2.1701   -3.0953 C   0  0  0  0  0  0  0  0  0  0  0  0
    2.1701    0.4150   -3.0953 C   0  0  0  0  0  0  0  0  0  0  0  0
    1.8776    1.8776    1.8776 C   0  0  0  0  0  0  0  0  0  0  0  0
    2.6482    2.6482    1.3755 O   0  0  0  0  0  0  0  0  0  0  0  0
    1.7868    1.7868    3.2715 N   0  0  0  0  0  0  0  0  0  0  0  0
    0.8861    0.8952    4.0064 C   0  0  0  0  0  0  0  0  0  0  0  0
    1.6391    0.5925    5.2887 C   0  0  0  0  0  0  0  0  0  0  0  0
    2.8172    1.5532    5.3224 C   0  0  0  0  0  0  0  0  0  0  0  0
    2.5712    2.5712    4.2274 C   0  0  2  0  0  0  0  0  0  0  0  0
    1.8078    3.8085    4.6872 C   0  0  0  0  0  0  0  0  0  0  0  0
    2.6299    4.5644    5.6430 N   0  0  0  0  0  0  0  0  0  0  0  0
    2.1484    5.7221    6.1951 C   0  0  0  0  0  0  0  0  0  0  0  0
    1.0555    6.1191    5.8984 O   0  0  0  0  0  0  0  0  0  0  0  0
    3.0006    6.5056    7.1859 C   0  0  2  0  0  0  0  0  0  0  0  0
    3.2814    5.5594    8.3440 C   0  0  0  0  0  0  0  0  0  0  0  0
    2.6074    6.1130    9.5902 C   0  0  1  0  0  0  0  0  0  0  0  0
    1.1399    6.4507    9.3868 C   0  0  0  0  0  0  0  0  0  0  0  0
    0.9783    7.5799    8.3822 C   0  0  0  0  0  0  0  0  0  0  0  0
    2.3244    7.7698    7.7100 C   0  0  2  0  0  0  0  0  0  0  0  0
    3.0653    8.3367    8.8976 C   0  0  0  0  0  0  0  0  0  0  0  0
    3.2068    7.4701    9.8740 C   0  0  0  0  0  0  0  0  0  0  0  0
   -1.0400    0.7152    0.7152 H   0  0  0  0  0  0  0  0  0  0  0  0
   -0.6551    1.1001    2.2548 H   0  0  0  0  0  0  0  0  0  0  0  0
   -0.6551    2.2548    1.1001 H   0  0  0  0  0  0  0  0  0  0  0  0
    1.1925    0.0377    1.1925 H   0  0  0  0  0  0  0  0  0  0  0  0
    2.2548    1.1001   -0.6551 H   0  0  0  0  0  0  0  0  0  0  0  0
    1.1001    2.2548   -0.6551 H   0  0  0  0  0  0  0  0  0  0  0  0
    0.6074   -0.5473   -1.1477 H   0  0  0  0  0  0  0  0  0  0  0  0
   -0.5473    0.6074   -1.1477 H   0  0  0  0  0  0  0  0  0  0  0  0
    0.0224    0.0224   -4.6426 H   0  0  0  0  0  0  0  0  0  0  0  0
    0.0224   -1.1323   -3.4879 H   0  0  0  0  0  0  0  0  0  0  0  0
   -1.1323    0.0224   -3.4879 H   0  0  0  0  0  0  0  0  0  0  0  0
    0.6074    2.3625   -4.0576 H   0  0  0  0  0  0  0  0  0  0  0  0
   -0.5473    2.3625   -2.9029 H   0  0  0  0  0  0  0  0  0  0  0  0
    0.9923    2.7474   -2.5180 H   0  0  0  0  0  0  0  0  0  0  0  0
    2.3625    0.6074   -4.0576 H   0  0  0  0  0  0  0  0  0  0  0  0
    2.7474    0.9923   -2.5180 H   0  0  0  0  0  0  0  0  0  0  0  0
    2.3625   -0.5473   -2.9029 H   0  0  0  0  0  0  0  0  0  0  0  0
    0.7142    0.0572    3.4884 H   0  0  0  0  0  0  0  0  0  0  0  0
    0.0174    1.3499    4.2028 H   0  0  0  0  0  0  0  0  0  0  0  0
    1.9628   -0.3537    5.2860 H   0  0  0  0  0  0  0  0  0  0  0  0
    1.0479    0.7403    6.0815 H   0  0  0  0  0  0  0  0  0  0  0  0
    2.8675    2.0075    6.2119 H   0  0  0  0  0  0  0  0  0  0  0  0
    3.6703    1.0604    5.1511 H   0  0  0  0  0  0  0  0  0  0  0  0
    3.4402    2.8420    3.8133 H   0  0  0  0  0  0  0  0  0  0  0  0
    1.6005    4.3850    3.8968 H   0  0  0  0  0  0  0  0  0  0  0  0
    0.9552    3.5291    5.1288 H   0  0  0  0  0  0  0  0  0  0  0  0
    3.5406    4.2336    5.8903 H   0  0  0  0  0  0  0  0  0  0  0  0
    3.8652    6.7540    6.7492 H   0  0  0  0  0  0  0  0  0  0  0  0
    4.2677    5.4932    8.4946 H   0  0  0  0  0  0  0  0  0  0  0  0
    2.9144    4.6527    8.1360 H   0  0  0  0  0  0  0  0  0  0  0  0
    2.7295    5.4968   10.3682 H   0  0  0  0  0  0  0  0  0  0  0  0
    0.7440    6.7310   10.2613 H   0  0  0  0  0  0  0  0  0  0  0  0
    0.6611    5.6404    9.0487 H   0  0  0  0  0  0  0  0  0  0  0  0
    0.2857    7.3386    7.7024 H   0  0  0  0  0  0  0  0  0  0  0  0
    0.7066    8.4205    8.8508 H   0  0  0  0  0  0  0  0  0  0  0  0
    2.2566    8.4540    6.9838 H   0  0  0  0  0  0  0  0  0  0  0  0
    3.4118    9.2740    8.9364 H   0  0  0  0  0  0  0  0  0  0  0  0
    3.6716    7.6897   10.7318 H   0  0  0  0  0  0  0  0  0  0  0  0
  1  2  1  0  0  0  0
  2  3  1  0  0  0  0
  2  9  1  0  0  0  0
  3  4  1  0  0  0  0
  4  5  1  0  0  0  0
  5  6  1  0  0  0  0
  5  7  1  0  0  0  0
  5  8  1  0  0  0  0
  9 10  2  0  0  0  0
  9 11  1  0  0  0  0
 11 12  1  0  0  0  0
 12 13  1  0  0  0  0
 13 14  1  0  0  0  0
 15 14  1  0  0  0  0
 15 11  1  0  0  0  0
 15 16  1  0  0  0  0
 16 17  1  0  0  0  0
 17 18  1  0  0  0  0
 18 19  2  0  0  0  0
 20 18  1  0  0  0  0
 20 21  1  0  0  0  0
 20 25  1  0  0  0  0
 22 21  1  0  0  0  0
 22 23  1  0  0  0  0
 22 27  1  0  0  0  0
 23 24  1  0  0  0  0
 25 24  1  0  0  0  0
 25 26  1  0  0  0  0
 26 27  2  0  0  0  0
  1 28  1  0  0  0  0
  1 29  1  0  0  0  0
  1 30  1  0  0  0  0
  2 31  1  0  0  0  0
  3 32  1  0  0  0  0
  3 33  1  0  0  0  0
  4 34  1  0  0  0  0
  4 35  1  0  0  0  0
  6 36  1  0  0  0  0
  6 37  1  0  0  0  0
  6 38  1  0  0  0  0
  7 39  1  0  0  0  0
  7 40  1  0  0  0  0
  7 41  1  0  0  0  0
  8 42  1  0  0  0  0
  8 43  1  0  0  0  0
  8 44  1  0  0  0  0
 12 45  1  0  0  0  0
 12 46  1  0  0  0  0
 13 47  1  0  0  0  0
 13 48  1  0  0  0  0
 14 49  1  0  0  0  0
 14 50  1  0  0  0  0
 15 51  1  0  0  0  0
 16 52  1  0  0  0  0
 16 53  1  0  0  0  0
 17 54  1  0  0  0  0
 20 55  1  0  0  0  0
 21 56  1  0  0  0  0
 21 57  1  0  0  0  0
 22 58  1  0  0  0  0
 23 59  1  0  0  0  0
 23 60  1  0  0  0  0
 24 61  1  0  0  0  0
 24 62  1  0  0  0  0
 25 63  1  0  0  0  0
 26 64  1  0  0  0  0
 27 65  1  0  0  0  0
M  END
$$$$
Z4121493648
          05302416093D 1   1.00000     0.00000     0
            
 65 67  0  0  0  0            999 V2000
   -0.4626    1.2925    1.2925 C   0  0  0  0  0  0  0  0  0  0  0  0
    1.0000    1.0000    1.0000 C   0  0  3  0  0  0  0  0  0  0  0  0
    1.2925    1.2925   -0.4626 C   0  0  0  0  0  0  0  0  0  0  0  0
    0.4150    0.4150   -1.3402 C   0  0  0  0  0  0  0  0  0  0  0  0
    0.7075    0.7075   -2.8028 C   0  0  0  0  0  0  0  0  0  0  0  0
   -0.1701   -0.1701   -3.6804 C   0  0  0  0  0  0  0  0  0  0  0  0
    0.4150    2.1701   -3.0953 C   0  0  0  0  0  0  0  0  0  0  0  0
    2.1701    0.4150   -3.0953 C   0  0  0  0  0  0  0  0  0  0  0  0
    1.8776    1.8776    1.8776 C   0  0  0  0  0  0  0  0  0  0  0  0
    2.6482    2.6482    1.3755 O   0  0  0  0  0  0  0  0  0  0  0  0
    1.7868    1.7868    3.2715 N   0  0  0  0  0  0  0  0  0  0  0  0
    0.8861    0.8952    4.0064 C   0  0  0  0  0  0  0  0  0  0  0  0
    1.6391    0.5925    5.2887 C   0  0  0  0  0  0  0  0  0  0  0  0
    2.8172    1.5532    5.3224 C   0  0  0  0  0  0  0  0  0  0  0  0
    2.5712    2.5712    4.2274 C   0  0  2  0  0  0  0  0  0  0  0  0
    1.8078    3.8085    4.6872 C   0  0  0  0  0  0  0  0  0  0  0  0
    2.6299    4.5644    5.6430 N   0  0  0  0  0  0  0  0  0  0  0  0
    2.1484    5.7221    6.1951 C   0  0  0  0  0  0  0  0  0  0  0  0
    2.8195    6.3392    6.9754 O   0  0  0  0  0  0  0  0  0  0  0  0
    0.7632    6.2252    5.8190 C   0  0  2  0  0  0  0  0  0  0  0  0
    0.7116    6.4380    4.3134 C   0  0  0  0  0  0  0  0  0  0  0  0
    0.2601    7.8488    3.9816 C   0  0  1  0  0  0  0  0  0  0  0  0
   -1.0752    8.1703    4.6336 C   0  0  0  0  0  0  0  0  0  0  0  0
   -0.9951    7.9307    6.1317 C   0  0  0  0  0  0  0  0  0  0  0  0
    0.4132    7.5221    6.5367 C   0  0  2  0  0  0  0  0  0  0  0  0
    1.2820    8.6355    5.9884 C   0  0  0  0  0  0  0  0  0  0  0  0
    1.1933    8.8055    4.6909 C   0  0  0  0  0  0  0  0  0  0  0  0
   -1.0400    0.7152    0.7152 H   0  0  0  0  0  0  0  0  0  0  0  0
   -0.6551    1.1001    2.2548 H   0  0  0  0  0  0  0  0  0  0  0  0
   -0.6551    2.2548    1.1001 H   0  0  0  0  0  0  0  0  0  0  0  0
    1.1925    0.0377    1.1925 H   0  0  0  0  0  0  0  0  0  0  0  0
    2.2548    1.1001   -0.6551 H   0  0  0  0  0  0  0  0  0  0  0  0
    1.1001    2.2548   -0.6551 H   0  0  0  0  0  0  0  0  0  0  0  0
    0.6074   -0.5473   -1.1477 H   0  0  0  0  0  0  0  0  0  0  0  0
   -0.5473    0.6074   -1.1477 H   0  0  0  0  0  0  0  0  0  0  0  0
    0.0224    0.0224   -4.6426 H   0  0  0  0  0  0  0  0  0  0  0  0
    0.0224   -1.1323   -3.4879 H   0  0  0  0  0  0  0  0  0  0  0  0
   -1.1323    0.0224   -3.4879 H   0  0  0  0  0  0  0  0  0  0  0  0
    0.6074    2.3625   -4.0576 H   0  0  0  0  0  0  0  0  0  0  0  0
   -0.5473    2.3625   -2.9029 H   0  0  0  0  0  0  0  0  0  0  0  0
    0.9923    2.7474   -2.5180 H   0  0  0  0  0  0  0  0  0  0  0  0
    2.3625    0.6074   -4.0576 H   0  0  0  0  0  0  0  0  0  0  0  0
    2.7474    0.9923   -2.5180 H   0  0  0  0  0  0  0  0  0  0  0  0
    2.3625   -0.5473   -2.9029 H   0  0  0  0  0  0  0  0  0  0  0  0
    0.7142    0.0572    3.4884 H   0  0  0  0  0  0  0  0  0  0  0  0
    0.0174    1.3499    4.2028 H   0  0  0  0  0  0  0  0  0  0  0  0
    1.9628   -0.3537    5.2860 H   0  0  0  0  0  0  0  0  0  0  0  0
    1.0479    0.7403    6.0815 H   0  0  0  0  0  0  0  0  0  0  0  0
    2.8675    2.0075    6.2119 H   0  0  0  0  0  0  0  0  0  0  0  0
    3.6703    1.0604    5.1511 H   0  0  0  0  0  0  0  0  0  0  0  0
    3.4402    2.8420    3.8133 H   0  0  0  0  0  0  0  0  0  0  0  0
    1.6005    4.3850    3.8968 H   0  0  0  0  0  0  0  0  0  0  0  0
    0.9552    3.5291    5.1288 H   0  0  0  0  0  0  0  0  0  0  0  0
    3.5406    4.2336    5.8903 H   0  0  0  0  0  0  0  0  0  0  0  0
    0.0902    5.5288    6.0681 H   0  0  0  0  0  0  0  0  0  0  0  0
    0.0687    5.7855    3.9122 H   0  0  0  0  0  0  0  0  0  0  0  0
    1.6227    6.2870    3.9299 H   0  0  0  0  0  0  0  0  0  0  0  0
    0.2409    8.0108    2.9950 H   0  0  0  0  0  0  0  0  0  0  0  0
   -1.7843    7.5837    4.2423 H   0  0  0  0  0  0  0  0  0  0  0  0
   -1.3042    9.1287    4.4636 H   0  0  0  0  0  0  0  0  0  0  0  0
   -1.2439    8.7716    6.6123 H   0  0  0  0  0  0  0  0  0  0  0  0
   -1.6329    7.2024    6.3822 H   0  0  0  0  0  0  0  0  0  0  0  0
    0.5038    7.4342    7.5287 H   0  0  0  0  0  0  0  0  0  0  0  0
    1.8744    9.1949    6.5681 H   0  0  0  0  0  0  0  0  0  0  0  0
    1.7047    9.5151    4.2062 H   0  0  0  0  0  0  0  0  0  0  0  0
  1  2  1  0  0  0  0
  2  3  1  0  0  0  0
  2  9  1  0  0  0  0
  3  4  1  0  0  0  0
  4  5  1  0  0  0  0
  5  6  1  0  0  0  0
  5  7  1  0  0  0  0
  5  8  1  0  0  0  0
  9 10  2  0  0  0  0
  9 11  1  0  0  0  0
 11 12  1  0  0  0  0
 12 13  1  0  0  0  0
 13 14  1  0  0  0  0
 15 14  1  0  0  0  0
 15 11  1  0  0  0  0
 15 16  1  0  0  0  0
 16 17  1  0  0  0  0
 17 18  1  0  0  0  0
 18 19  2  0  0  0  0
 20 18  1  0  0  0  0
 20 21  1  0  0  0  0
 20 25  1  0  0  0  0
 22 21  1  0  0  0  0
 22 23  1  0  0  0  0
 22 27  1  0  0  0  0
 23 24  1  0  0  0  0
 25 24  1  0  0  0  0
 25 26  1  0  0  0  0
 26 27  2  0  0  0  0
  1 28  1  0  0  0  0
  1 29  1  0  0  0  0
  1 30  1  0  0  0  0
  2 31  1  0  0  0  0
  3 32  1  0  0  0  0
  3 33  1  0  0  0  0
  4 34  1  0  0  0  0
  4 35  1  0  0  0  0
  6 36  1  0  0  0  0
  6 37  1  0  0  0  0
  6 38  1  0  0  0  0
  7 39  1  0  0  0  0
  7 40  1  0  0  0  0
  7 41  1  0  0  0  0
  8 42  1  0  0  0  0
  8 43  1  0  0  0  0
  8 44  1  0  0  0  0
 12 45  1  0  0  0  0
 12 46  1  0  0  0  0
 13 47  1  0  0  0  0
 13 48  1  0  0  0  0
 14 49  1  0  0  0  0
 14 50  1  0  0  0  0
 15 51  1  0  0  0  0
 16 52  1  0  0  0  0
 16 53  1  0  0  0  0
 17 54  1  0  0  0  0
 20 55  1  0  0  0  0
 21 56  1  0  0  0  0
 21 57  1  0  0  0  0
 22 58  1  0  0  0  0
 23 59  1  0  0  0  0
 23 60  1  0  0  0  0
 24 61  1  0  0  0  0
 24 62  1  0  0  0  0
 25 63  1  0  0  0  0
 26 64  1  0  0  0  0
 27 65  1  0  0  0  0
M  END
$$$$
Z4121493648
          05302416093D 1   1.00000     0.00000     0
            
 65 67  0  0  0  0            999 V2000
   -0.4626    1.2925    1.2925 C   0  0  0  0  0  0  0  0  0  0  0  0
    1.0000    1.0000    1.0000 C   0  0  3  0  0  0  0  0  0  0  0  0
    1.2925    1.2925   -0.4626 C   0  0  0  0  0  0  0  0  0  0  0  0
    0.4150    0.4150   -1.3402 C   0  0  0  0  0  0  0  0  0  0  0  0
    0.7075    0.7075   -2.8028 C   0  0  0  0  0  0  0  0  0  0  0  0
   -0.1701   -0.1701   -3.6804 C   0  0  0  0  0  0  0  0  0  0  0  0
    0.4150    2.1701   -3.0953 C   0  0  0  0  0  0  0  0  0  0  0  0
    2.1701    0.4150   -3.0953 C   0  0  0  0  0  0  0  0  0  0  0  0
    1.8776    1.8776    1.8776 C   0  0  0  0  0  0  0  0  0  0  0  0
    1.3755    2.6482    2.6482 O   0  0  0  0  0  0  0  0  0  0  0  0
    3.2704    1.7868    1.7868 N   0  0  0  0  0  0  0  0  0  0  0  0
    4.0211    0.9040    0.8891 C   0  0  0  0  0  0  0  0  0  0  0  0
    5.3836    0.7488    1.5394 C   0  0  0  0  0  0  0  0  0  0  0  0
    5.2838    1.5091    2.8476 C   0  0  0  0  0  0  0  0  0  0  0  0
    4.2389    2.5619    2.5619 C   0  0  2  0  0  0  0  0  0  0  0  0
    3.6832    3.0321    3.8982 C   0  0  0  0  0  0  0  0  0  0  0  0
    4.7122    3.8002    4.6138 N   0  0  0  0  0  0  0  0  0  0  0  0
    4.9403    5.1108    4.2863 C   0  0  0  0  0  0  0  0  0  0  0  0
    4.3000    5.6317    3.4153 O   0  0  0  0  0  0  0  0  0  0  0  0
    6.0049    5.9055    5.0267 C   0  0  2  0  0  0  0  0  0  0  0  0
    5.6708    5.9072    6.5111 C   0  0  0  0  0  0  0  0  0  0  0  0
    5.6091    7.3250    7.0501 C   0  0  1  0  0  0  0  0  0  0  0  0
    6.8989    8.0800    6.7705 C   0  0  0  0  0  0  0  0  0  0  0  0
    7.2125    8.0440    5.2845 C   0  0  0  0  0  0  0  0  0  0  0  0
    6.1049    7.3375    4.5177 C   0  0  2  0  0  0  0  0  0  0  0  0
    4.8529    8.0893    4.9207 C   0  0  0  0  0  0  0  0  0  0  0  0
    4.6102    8.0898    6.2095 C   0  0  0  0  0  0  0  0  0  0  0  0
   -1.0400    0.7152    0.7152 H   0  0  0  0  0  0  0  0  0  0  0  0
   -0.6551    1.1001    2.2548 H   0  0  0  0  0  0  0  0  0  0  0  0
   -0.6551    2.2548    1.1001 H   0  0  0  0  0  0  0  0  0  0  0  0
    1.1925    0.0377    1.1925 H   0  0  0  0  0  0  0  0  0  0  0  0
    2.2548    1.1001   -0.6551 H   0  0  0  0  0  0  0  0  0  0  0  0
    1.1001    2.2548   -0.6551 H   0  0  0  0  0  0  0  0  0  0  0  0
    0.6074   -0.5473   -1.1477 H   0  0  0  0  0  0  0  0  0  0  0  0
   -0.5473    0.6074   -1.1477 H   0  0  0  0  0  0  0  0  0  0  0  0
    0.0224    0.0224   -4.6426 H   0  0  0  0  0  0  0  0  0  0  0  0
    0.0224   -1.1323   -3.4879 H   0  0  0  0  0  0  0  0  0  0  0  0
   -1.1323    0.0224   -3.4879 H   0  0  0  0  0  0  0  0  0  0  0  0
    0.6074    2.3625   -4.0576 H   0  0  0  0  0  0  0  0  0  0  0  0
   -0.5473    2.3625   -2.9029 H   0  0  0  0  0  0  0  0  0  0  0  0
    0.9923    2.7474   -2.5180 H   0  0  0  0  0  0  0  0  0  0  0  0
    2.3625    0.6074   -4.0576 H   0  0  0  0  0  0  0  0  0  0  0  0
    2.7474    0.9923   -2.5180 H   0  0  0  0  0  0  0  0  0  0  0  0
    2.3625   -0.5473   -2.9029 H   0  0  0  0  0  0  0  0  0  0  0  0
    4.1093    1.3172   -0.0172 H   0  0  0  0  0  0  0  0  0  0  0  0
    3.5672    0.0167    0.8082 H   0  0  0  0  0  0  0  0  0  0  0  0
    6.0969    1.1410    0.9586 H   0  0  0  0  0  0  0  0  0  0  0  0
    5.5844   -0.2162    1.7082 H   0  0  0  0  0  0  0  0  0  0  0  0
    4.9911    0.9066    3.5901 H   0  0  0  0  0  0  0  0  0  0  0  0
    6.1597    1.9293    3.0849 H   0  0  0  0  0  0  0  0  0  0  0  0
    4.6149    3.3210    2.0304 H   0  0  0  0  0  0  0  0  0  0  0  0
    2.8836    3.6117    3.7413 H   0  0  0  0  0  0  0  0  0  0  0  0
    3.4178    2.2391    4.4464 H   0  0  0  0  0  0  0  0  0  0  0  0
    5.2458    3.3661    5.3397 H   0  0  0  0  0  0  0  0  0  0  0  0
    6.8889    5.4563    4.8972 H   0  0  0  0  0  0  0  0  0  0  0  0
    6.3757    5.3991    7.0060 H   0  0  0  0  0  0  0  0  0  0  0  0
    4.7839    5.4660    6.6477 H   0  0  0  0  0  0  0  0  0  0  0  0
    5.3700    7.3437    8.0209 H   0  0  0  0  0  0  0  0  0  0  0  0
    7.6482    7.6537    7.2773 H   0  0  0  0  0  0  0  0  0  0  0  0
    6.7962    9.0304    7.0641 H   0  0  0  0  0  0  0  0  0  0  0  0
    7.3009    8.9805    4.9450 H   0  0  0  0  0  0  0  0  0  0  0  0
    8.0733    7.5553    5.1425 H   0  0  0  0  0  0  0  0  0  0  0  0
    6.2569    7.3710    3.5299 H   0  0  0  0  0  0  0  0  0  0  0  0
    4.2602    8.5476    4.2583 H   0  0  0  0  0  0  0  0  0  0  0  0
    3.8229    8.5610    6.6074 H   0  0  0  0  0  0  0  0  0  0  0  0
  1  2  1  0  0  0  0
  2  3  1  0  0  0  0
  2  9  1  0  0  0  0
  3  4  1  0  0  0  0
  4  5  1  0  0  0  0
  5  6  1  0  0  0  0
  5  7  1  0  0  0  0
  5  8  1  0  0  0  0
  9 10  2  0  0  0  0
  9 11  1  0  0  0  0
 11 12  1  0  0  0  0
 12 13  1  0  0  0  0
 13 14  1  0  0  0  0
 15 14  1  0  0  0  0
 15 11  1  0  0  0  0
 15 16  1  0  0  0  0
 16 17  1  0  0  0  0
 17 18  1  0  0  0  0
 18 19  2  0  0  0  0
 20 18  1  0  0  0  0
 20 21  1  0  0  0  0
 20 25  1  0  0  0  0
 22 21  1  0  0  0  0
 22 23  1  0  0  0  0
 22 27  1  0  0  0  0
 23 24  1  0  0  0  0
 25 24  1  0  0  0  0
 25 26  1  0  0  0  0
 26 27  2  0  0  0  0
  1 28  1  0  0  0  0
  1 29  1  0  0  0  0
  1 30  1  0  0  0  0
  2 31  1  0  0  0  0
  3 32  1  0  0  0  0
  3 33  1  0  0  0  0
  4 34  1  0  0  0  0
  4 35  1  0  0  0  0
  6 36  1  0  0  0  0
  6 37  1  0  0  0  0
  6 38  1  0  0  0  0
  7 39  1  0  0  0  0
  7 40  1  0  0  0  0
  7 41  1  0  0  0  0
  8 42  1  0  0  0  0
  8 43  1  0  0  0  0
  8 44  1  0  0  0  0
 12 45  1  0  0  0  0
 12 46  1  0  0  0  0
 13 47  1  0  0  0  0
 13 48  1  0  0  0  0
 14 49  1  0  0  0  0
 14 50  1  0  0  0  0
 15 51  1  0  0  0  0
 16 52  1  0  0  0  0
 16 53  1  0  0  0  0
 17 54  1  0  0  0  0
 20 55  1  0  0  0  0
 21 56  1  0  0  0  0
 21 57  1  0  0  0  0
 22 58  1  0  0  0  0
 23 59  1  0  0  0  0
 23 60  1  0  0  0  0
 24 61  1  0  0  0  0
 24 62  1  0  0  0  0
 25 63  1  0  0  0  0
 26 64  1  0  0  0  0
 27 65  1  0  0  0  0
M  END
$$$$
Z4121493648
          05302416093D 1   1.00000     0.00000     0
            
 65 67  0  0  0  0            999 V2000
   -0.4626    1.2925    1.2925 C   0  0  0  0  0  0  0  0  0  0  0  0
    1.0000    1.0000    1.0000 C   0  0  3  0  0  0  0  0  0  0  0  0
    1.2925    1.2925   -0.4626 C   0  0  0  0  0  0  0  0  0  0  0  0
    0.4150    0.4150   -1.3402 C   0  0  0  0  0  0  0  0  0  0  0  0
    0.7075    0.7075   -2.8028 C   0  0  0  0  0  0  0  0  0  0  0  0
   -0.1701   -0.1701   -3.6804 C   0  0  0  0  0  0  0  0  0  0  0  0
    0.4150    2.1701   -3.0953 C   0  0  0  0  0  0  0  0  0  0  0  0
    2.1701    0.4150   -3.0953 C   0  0  0  0  0  0  0  0  0  0  0  0
    1.8776    1.8776    1.8776 C   0  0  0  0  0  0  0  0  0  0  0  0
    1.3755    2.6482    2.6482 O   0  0  0  0  0  0  0  0  0  0  0  0
    3.2704    1.7868    1.7868 N   0  0  0  0  0  0  0  0  0  0  0  0
    4.0211    0.9040    0.8891 C   0  0  0  0  0  0  0  0  0  0  0  0
    5.3836    0.7488    1.5394 C   0  0  0  0  0  0  0  0  0  0  0  0
    5.2838    1.5091    2.8476 C   0  0  0  0  0  0  0  0  0  0  0  0
    4.2389    2.5619    2.5619 C   0  0  2  0  0  0  0  0  0  0  0  0
    3.6832    3.0321    3.8982 C   0  0  0  0  0  0  0  0  0  0  0  0
    4.7122    3.8002    4.6138 N   0  0  0  0  0  0  0  0  0  0  0  0
    4.9403    5.1108    4.2863 C   0  0  0  0  0  0  0  0  0  0  0  0
    4.3000    5.6317    3.4153 O   0  0  0  0  0  0  0  0  0  0  0  0
    6.0049    5.9055    5.0267 C   0  0  2  0  0  0  0  0  0  0  0  0
    7.3570    5.2478    4.7943 C   0  0  0  0  0  0  0  0  0  0  0  0
    8.0420    4.9385    6.1132 C   0  0  1  0  0  0  0  0  0  0  0  0
    8.1716    6.1844    6.9750 C   0  0  0  0  0  0  0  0  0  0  0  0
    6.8087    6.8258    7.1727 C   0  0  0  0  0  0  0  0  0  0  0  0
    5.7198    5.9873    6.5206 C   0  0  2  0  0  0  0  0  0  0  0  0
    5.9094    4.6141    7.1316 C   0  0  0  0  0  0  0  0  0  0  0  0
    7.0945    4.0890    6.9316 C   0  0  0  0  0  0  0  0  0  0  0  0
   -1.0400    0.7152    0.7152 H   0  0  0  0  0  0  0  0  0  0  0  0
   -0.6551    1.1001    2.2548 H   0  0  0  0  0  0  0  0  0  0  0  0
   -0.6551    2.2548    1.1001 H   0  0  0  0  0  0  0  0  0  0  0  0
    1.1925    0.0377    1.1925 H   0  0  0  0  0  0  0  0  0  0  0  0
    2.2548    1.1001   -0.6551 H   0  0  0  0  0  0  0  0  0  0  0  0
    1.1001    2.2548   -0.6551 H   0  0  0  0  0  0  0  0  0  0  0  0
    0.6074   -0.5473   -1.1477 H   0  0  0  0  0  0  0  0  0  0  0  0
   -0.5473    0.6074   -1.1477 H   0  0  0  0  0  0  0  0  0  0  0  0
    0.0224    0.0224   -4.6426 H   0  0  0  0  0  0  0  0  0  0  0  0
    0.0224   -1.1323   -3.4879 H   0  0  0  0  0  0  0  0  0  0  0  0
   -1.1323    0.0224   -3.4879 H   0  0  0  0  0  0  0  0  0  0  0  0
    0.6074    2.3625   -4.0576 H   0  0  0  0  0  0  0  0  0  0  0  0
   -0.5473    2.3625   -2.9029 H   0  0  0  0  0  0  0  0  0  0  0  0
    0.9923    2.7474   -2.5180 H   0  0  0  0  0  0  0  0  0  0  0  0
    2.3625    0.6074   -4.0576 H   0  0  0  0  0  0  0  0  0  0  0  0
    2.7474    0.9923   -2.5180 H   0  0  0  0  0  0  0  0  0  0  0  0
    2.3625   -0.5473   -2.9029 H   0  0  0  0  0  0  0  0  0  0  0  0
    4.1093    1.3172   -0.0172 H   0  0  0  0  0  0  0  0  0  0  0  0
    3.5672    0.0167    0.8082 H   0  0  0  0  0  0  0  0  0  0  0  0
    6.0969    1.1410    0.9586 H   0  0  0  0  0  0  0  0  0  0  0  0
    5.5844   -0.2162    1.7082 H   0  0  0  0  0  0  0  0  0  0  0  0
    4.9911    0.9066    3.5901 H   0  0  0  0  0  0  0  0  0  0  0  0
    6.1597    1.9293    3.0849 H   0  0  0  0  0  0  0  0  0  0  0  0
    4.6149    3.3210    2.0304 H   0  0  0  0  0  0  0  0  0  0  0  0
    2.8836    3.6117    3.7413 H   0  0  0  0  0  0  0  0  0  0  0  0
    3.4178    2.2391    4.4464 H   0  0  0  0  0  0  0  0  0  0  0  0
    5.2458    3.3661    5.3397 H   0  0  0  0  0  0  0  0  0  0  0  0
    6.0307    6.8329    4.6536 H   0  0  0  0  0  0  0  0  0  0  0  0
    7.9351    5.8664    4.2622 H   0  0  0  0  0  0  0  0  0  0  0  0
    7.2242    4.3965    4.2867 H   0  0  0  0  0  0  0  0  0  0  0  0
    8.9238    4.4867    5.9775 H   0  0  0  0  0  0  0  0  0  0  0  0
    8.7819    6.8362    6.5247 H   0  0  0  0  0  0  0  0  0  0  0  0
    8.5512    5.9328    7.8654 H   0  0  0  0  0  0  0  0  0  0  0  0
    6.6213    6.9031    8.1519 H   0  0  0  0  0  0  0  0  0  0  0  0
    6.8121    7.7371    6.7610 H   0  0  0  0  0  0  0  0  0  0  0  0
    4.8078    6.3537    6.7054 H   0  0  0  0  0  0  0  0  0  0  0  0
    5.1901    4.1464    7.6452 H   0  0  0  0  0  0  0  0  0  0  0  0
    7.3528    3.1932    7.2933 H   0  0  0  0  0  0  0  0  0  0  0  0
  1  2  1  0  0  0  0
  2  3  1  0  0  0  0
  2  9  1  0  0  0  0
  3  4  1  0  0  0  0
  4  5  1  0  0  0  0
  5  6  1  0  0  0  0
  5  7  1  0  0  0  0
  5  8  1  0  0  0  0
  9 10  2  0  0  0  0
  9 11  1  0  0  0  0
 11 12  1  0  0  0  0
 12 13  1  0  0  0  0
 13 14  1  0  0  0  0
 15 14  1  0  0  0  0
 15 11  1  0  0  0  0
 15 16  1  0  0  0  0
 16 17  1  0  0  0  0
 17 18  1  0  0  0  0
 18 19  2  0  0  0  0
 20 18  1  0  0  0  0
 20 21  1  0  0  0  0
 20 25  1  0  0  0  0
 22 21  1  0  0  0  0
 22 23  1  0  0  0  0
 22 27  1  0  0  0  0
 23 24  1  0  0  0  0
 25 24  1  0  0  0  0
 25 26  1  0  0  0  0
 26 27  2  0  0  0  0
  1 28  1  0  0  0  0
  1 29  1  0  0  0  0
  1 30  1  0  0  0  0
  2 31  1  0  0  0  0
  3 32  1  0  0  0  0
  3 33  1  0  0  0  0
  4 34  1  0  0  0  0
  4 35  1  0  0  0  0
  6 36  1  0  0  0  0
  6 37  1  0  0  0  0
  6 38  1  0  0  0  0
  7 39  1  0  0  0  0
  7 40  1  0  0  0  0
  7 41  1  0  0  0  0
  8 42  1  0  0  0  0
  8 43  1  0  0  0  0
  8 44  1  0  0  0  0
 12 45  1  0  0  0  0
 12 46  1  0  0  0  0
 13 47  1  0  0  0  0
 13 48  1  0  0  0  0
 14 49  1  0  0  0  0
 14 50  1  0  0  0  0
 15 51  1  0  0  0  0
 16 52  1  0  0  0  0
 16 53  1  0  0  0  0
 17 54  1  0  0  0  0
 20 55  1  0  0  0  0
 21 56  1  0  0  0  0
 21 57  1  0  0  0  0
 22 58  1  0  0  0  0
 23 59  1  0  0  0  0
 23 60  1  0  0  0  0
 24 61  1  0  0  0  0
 24 62  1  0  0  0  0
 25 63  1  0  0  0  0
 26 64  1  0  0  0  0
 27 65  1  0  0  0  0
M  END
$$$$
Z4121493648
          05302416093D 1   1.00000     0.00000     0
            
 65 67  0  0  0  0            999 V2000
   -0.4626    1.2925    1.2925 C   0  0  0  0  0  0  0  0  0  0  0  0
    1.0000    1.0000    1.0000 C   0  0  3  0  0  0  0  0  0  0  0  0
    1.2925    1.2925   -0.4626 C   0  0  0  0  0  0  0  0  0  0  0  0
    0.4150    0.4150   -1.3402 C   0  0  0  0  0  0  0  0  0  0  0  0
    0.7075    0.7075   -2.8028 C   0  0  0  0  0  0  0  0  0  0  0  0
   -0.1701   -0.1701   -3.6804 C   0  0  0  0  0  0  0  0  0  0  0  0
    0.4150    2.1701   -3.0953 C   0  0  0  0  0  0  0  0  0  0  0  0
    2.1701    0.4150   -3.0953 C   0  0  0  0  0  0  0  0  0  0  0  0
    1.8776    1.8776    1.8776 C   0  0  0  0  0  0  0  0  0  0  0  0
    1.3755    2.6482    2.6482 O   0  0  0  0  0  0  0  0  0  0  0  0
    3.2704    1.7868    1.7868 N   0  0  0  0  0  0  0  0  0  0  0  0
    4.0211    0.9040    0.8891 C   0  0  0  0  0  0  0  0  0  0  0  0
    5.3836    0.7488    1.5394 C   0  0  0  0  0  0  0  0  0  0  0  0
    5.2838    1.5091    2.8476 C   0  0  0  0  0  0  0  0  0  0  0  0
    4.2389    2.5619    2.5619 C   0  0  2  0  0  0  0  0  0  0  0  0
    3.6832    3.0321    3.8982 C   0  0  0  0  0  0  0  0  0  0  0  0
    4.7122    3.8002    4.6138 N   0  0  0  0  0  0  0  0  0  0  0  0
    4.9403    5.1108    4.2863 C   0  0  0  0  0  0  0  0  0  0  0  0
    4.3000    5.6317    3.4153 O   0  0  0  0  0  0  0  0  0  0  0  0
    6.0049    5.9055    5.0267 C   0  0  2  0  0  0  0  0  0  0  0  0
    6.0151    7.3291    4.4899 C   0  0  0  0  0  0  0  0  0  0  0  0
    7.4078    7.7254    4.0340 C   0  0  1  0  0  0  0  0  0  0  0  0
    8.4270    7.5448    5.1477 C   0  0  0  0  0  0  0  0  0  0  0  0
    8.3787    6.1201    5.6728 C   0  0  0  0  0  0  0  0  0  0  0  0
    7.3879    5.2859    4.8750 C   0  0  2  0  0  0  0  0  0  0  0  0
    7.8468    5.4568    3.4413 C   0  0  0  0  0  0  0  0  0  0  0  0
    7.8658    6.6991    3.0210 C   0  0  0  0  0  0  0  0  0  0  0  0
   -1.0400    0.7152    0.7152 H   0  0  0  0  0  0  0  0  0  0  0  0
   -0.6551    1.1001    2.2548 H   0  0  0  0  0  0  0  0  0  0  0  0
   -0.6551    2.2548    1.1001 H   0  0  0  0  0  0  0  0  0  0  0  0
    1.1925    0.0377    1.1925 H   0  0  0  0  0  0  0  0  0  0  0  0
    2.2548    1.1001   -0.6551 H   0  0  0  0  0  0  0  0  0  0  0  0
    1.1001    2.2548   -0.6551 H   0  0  0  0  0  0  0  0  0  0  0  0
    0.6074   -0.5473   -1.1477 H   0  0  0  0  0  0  0  0  0  0  0  0
   -0.5473    0.6074   -1.1477 H   0  0  0  0  0  0  0  0  0  0  0  0
    0.0224    0.0224   -4.6426 H   0  0  0  0  0  0  0  0  0  0  0  0
    0.0224   -1.1323   -3.4879 H   0  0  0  0  0  0  0  0  0  0  0  0
   -1.1323    0.0224   -3.4879 H   0  0  0  0  0  0  0  0  0  0  0  0
    0.6074    2.3625   -4.0576 H   0  0  0  0  0  0  0  0  0  0  0  0
   -0.5473    2.3625   -2.9029 H   0  0  0  0  0  0  0  0  0  0  0  0
    0.9923    2.7474   -2.5180 H   0  0  0  0  0  0  0  0  0  0  0  0
    2.3625    0.6074   -4.0576 H   0  0  0  0  0  0  0  0  0  0  0  0
    2.7474    0.9923   -2.5180 H   0  0  0  0  0  0  0  0  0  0  0  0
    2.3625   -0.5473   -2.9029 H   0  0  0  0  0  0  0  0  0  0  0  0
    4.1093    1.3172   -0.0172 H   0  0  0  0  0  0  0  0  0  0  0  0
    3.5672    0.0167    0.8082 H   0  0  0  0  0  0  0  0  0  0  0  0
    6.0969    1.1410    0.9586 H   0  0  0  0  0  0  0  0  0  0  0  0
    5.5844   -0.2162    1.7082 H   0  0  0  0  0  0  0  0  0  0  0  0
    4.9911    0.9066    3.5901 H   0  0  0  0  0  0  0  0  0  0  0  0
    6.1597    1.9293    3.0849 H   0  0  0  0  0  0  0  0  0  0  0  0
    4.6149    3.3210    2.0304 H   0  0  0  0  0  0  0  0  0  0  0  0
    2.8836    3.6117    3.7413 H   0  0  0  0  0  0  0  0  0  0  0  0
    3.4178    2.2391    4.4464 H   0  0  0  0  0  0  0  0  0  0  0  0
    5.2458    3.3661    5.3397 H   0  0  0  0  0  0  0  0  0  0  0  0
    5.7692    5.9305    5.9982 H   0  0  0  0  0  0  0  0  0  0  0  0
    5.7168    7.9535    5.2118 H   0  0  0  0  0  0  0  0  0  0  0  0
    5.3866    7.3913    3.7146 H   0  0  0  0  0  0  0  0  0  0  0  0
    7.4267    8.6522    3.6591 H   0  0  0  0  0  0  0  0  0  0  0  0
    8.2192    8.1791    5.8924 H   0  0  0  0  0  0  0  0  0  0  0  0
    9.3422    7.7358    4.7928 H   0  0  0  0  0  0  0  0  0  0  0  0
    9.2881    5.7112    5.5967 H   0  0  0  0  0  0  0  0  0  0  0  0
    8.0984    6.1333    6.6327 H   0  0  0  0  0  0  0  0  0  0  0  0
    7.3982    4.3264    5.1566 H   0  0  0  0  0  0  0  0  0  0  0  0
    8.1133    4.6858    2.8630 H   0  0  0  0  0  0  0  0  0  0  0  0
    8.1613    6.9494    2.0991 H   0  0  0  0  0  0  0  0  0  0  0  0
  1  2  1  0  0  0  0
  2  3  1  0  0  0  0
  2  9  1  0  0  0  0
  3  4  1  0  0  0  0
  4  5  1  0  0  0  0
  5  6  1  0  0  0  0
  5  7  1  0  0  0  0
  5  8  1  0  0  0  0
  9 10  2  0  0  0  0
  9 11  1  0  0  0  0
 11 12  1  0  0  0  0
 12 13  1  0  0  0  0
 13 14  1  0  0  0  0
 15 14  1  0  0  0  0
 15 11  1  0  0  0  0
 15 16  1  0  0  0  0
 16 17  1  0  0  0  0
 17 18  1  0  0  0  0
 18 19  2  0  0  0  0
 20 18  1  0  0  0  0
 20 21  1  0  0  0  0
 20 25  1  0  0  0  0
 22 21  1  0  0  0  0
 22 23  1  0  0  0  0
 22 27  1  0  0  0  0
 23 24  1  0  0  0  0
 25 24  1  0  0  0  0
 25 26  1  0  0  0  0
 26 27  2  0  0  0  0
  1 28  1  0  0  0  0
  1 29  1  0  0  0  0
  1 30  1  0  0  0  0
  2 31  1  0  0  0  0
  3 32  1  0  0  0  0
  3 33  1  0  0  0  0
  4 34  1  0  0  0  0
  4 35  1  0  0  0  0
  6 36  1  0  0  0  0
  6 37  1  0  0  0  0
  6 38  1  0  0  0  0
  7 39  1  0  0  0  0
  7 40  1  0  0  0  0
  7 41  1  0  0  0  0
  8 42  1  0  0  0  0
  8 43  1  0  0  0  0
  8 44  1  0  0  0  0
 12 45  1  0  0  0  0
 12 46  1  0  0  0  0
 13 47  1  0  0  0  0
 13 48  1  0  0  0  0
 14 49  1  0  0  0  0
 14 50  1  0  0  0  0
 15 51  1  0  0  0  0
 16 52  1  0  0  0  0
 16 53  1  0  0  0  0
 17 54  1  0  0  0  0
 20 55  1  0  0  0  0
 21 56  1  0  0  0  0
 21 57  1  0  0  0  0
 22 58  1  0  0  0  0
 23 59  1  0  0  0  0
 23 60  1  0  0  0  0
 24 61  1  0  0  0  0
 24 62  1  0  0  0  0
 25 63  1  0  0  0  0
 26 64  1  0  0  0  0
 27 65  1  0  0  0  0
M  END
$$$$
Z4121493648
          05302416093D 1   1.00000     0.00000     0
            
 65 67  0  0  0  0            999 V2000
   -0.4626    1.2925    1.2925 C   0  0  0  0  0  0  0  0  0  0  0  0
    1.0000    1.0000    1.0000 C   0  0  3  0  0  0  0  0  0  0  0  0
    1.2925    1.2925   -0.4626 C   0  0  0  0  0  0  0  0  0  0  0  0
    0.4150    0.4150   -1.3402 C   0  0  0  0  0  0  0  0  0  0  0  0
    0.7075    0.7075   -2.8028 C   0  0  0  0  0  0  0  0  0  0  0  0
   -0.1701   -0.1701   -3.6804 C   0  0  0  0  0  0  0  0  0  0  0  0
    0.4150    2.1701   -3.0953 C   0  0  0  0  0  0  0  0  0  0  0  0
    2.1701    0.4150   -3.0953 C   0  0  0  0  0  0  0  0  0  0  0  0
    1.8776    1.8776    1.8776 C   0  0  0  0  0  0  0  0  0  0  0  0
    1.3755    2.6482    2.6482 O   0  0  0  0  0  0  0  0  0  0  0  0
    3.2704    1.7868    1.7868 N   0  0  0  0  0  0  0  0  0  0  0  0
    4.0211    0.9040    0.8891 C   0  0  0  0  0  0  0  0  0  0  0  0
    5.3836    0.7488    1.5394 C   0  0  0  0  0  0  0  0  0  0  0  0
    5.2838    1.5091    2.8476 C   0  0  0  0  0  0  0  0  0  0  0  0
    4.2389    2.5619    2.5619 C   0  0  2  0  0  0  0  0  0  0  0  0
    3.6832    3.0321    3.8982 C   0  0  0  0  0  0  0  0  0  0  0  0
    4.7122    3.8002    4.6138 N   0  0  0  0  0  0  0  0  0  0  0  0
    5.7047    3.1465    5.2954 C   0  0  0  0  0  0  0  0  0  0  0  0
    5.7341    1.9470    5.3082 O   0  0  0  0  0  0  0  0  0  0  0  0
    6.7694    3.9413    6.0358 C   0  0  2  0  0  0  0  0  0  0  0  0
    7.4832    4.8469    5.0432 C   0  0  0  0  0  0  0  0  0  0  0  0
    8.9843    4.6269    5.0928 C   0  0  1  0  0  0  0  0  0  0  0  0
    9.5247    4.8127    6.5017 C   0  0  0  0  0  0  0  0  0  0  0  0
    8.7799    3.9088    7.4693 C   0  0  0  0  0  0  0  0  0  0  0  0
    7.7793    3.0353    6.7278 C   0  0  2  0  0  0  0  0  0  0  0  0
    8.6188    2.3424    5.6740 C   0  0  0  0  0  0  0  0  0  0  0  0
    9.2382    3.1549    4.8517 C   0  0  0  0  0  0  0  0  0  0  0  0
   -1.0400    0.7152    0.7152 H   0  0  0  0  0  0  0  0  0  0  0  0
   -0.6551    1.1001    2.2548 H   0  0  0  0  0  0  0  0  0  0  0  0
   -0.6551    2.2548    1.1001 H   0  0  0  0  0  0  0  0  0  0  0  0
    1.1925    0.0377    1.1925 H   0  0  0  0  0  0  0  0  0  0  0  0
    2.2548    1.1001   -0.6551 H   0  0  0  0  0  0  0  0  0  0  0  0
    1.1001    2.2548   -0.6551 H   0  0  0  0  0  0  0  0  0  0  0  0
    0.6074   -0.5473   -1.1477 H   0  0  0  0  0  0  0  0  0  0  0  0
   -0.5473    0.6074   -1.1477 H   0  0  0  0  0  0  0  0  0  0  0  0
    0.0224    0.0224   -4.6426 H   0  0  0  0  0  0  0  0  0  0  0  0
    0.0224   -1.1323   -3.4879 H   0  0  0  0  0  0  0  0  0  0  0  0
   -1.1323    0.0224   -3.4879 H   0  0  0  0  0  0  0  0  0  0  0  0
    0.6074    2.3625   -4.0576 H   0  0  0  0  0  0  0  0  0  0  0  0
   -0.5473    2.3625   -2.9029 H   0  0  0  0  0  0  0  0  0  0  0  0
    0.9923    2.7474   -2.5180 H   0  0  0  0  0  0  0  0  0  0  0  0
    2.3625    0.6074   -4.0576 H   0  0  0  0  0  0  0  0  0  0  0  0
    2.7474    0.9923   -2.5180 H   0  0  0  0  0  0  0  0  0  0  0  0
    2.3625   -0.5473   -2.9029 H   0  0  0  0  0  0  0  0  0  0  0  0
    4.1093    1.3172   -0.0172 H   0  0  0  0  0  0  0  0  0  0  0  0
    3.5672    0.0167    0.8082 H   0  0  0  0  0  0  0  0  0  0  0  0
    6.0969    1.1410    0.9586 H   0  0  0  0  0  0  0  0  0  0  0  0
    5.5844   -0.2162    1.7082 H   0  0  0  0  0  0  0  0  0  0  0  0
    4.9911    0.9066    3.5901 H   0  0  0  0  0  0  0  0  0  0  0  0
    6.1597    1.9293    3.0849 H   0  0  0  0  0  0  0  0  0  0  0  0
    4.6149    3.3210    2.0304 H   0  0  0  0  0  0  0  0  0  0  0  0
    2.8836    3.6117    3.7413 H   0  0  0  0  0  0  0  0  0  0  0  0
    3.4178    2.2391    4.4464 H   0  0  0  0  0  0  0  0  0  0  0  0
    4.6878    4.7999    4.6031 H   0  0  0  0  0  0  0  0  0  0  0  0
    6.3229    4.5105    6.7262 H   0  0  0  0  0  0  0  0  0  0  0  0
    7.2843    5.8007    5.2685 H   0  0  0  0  0  0  0  0  0  0  0  0
    7.1530    4.6464    4.1208 H   0  0  0  0  0  0  0  0  0  0  0  0
    9.4664    5.2008    4.4308 H   0  0  0  0  0  0  0  0  0  0  0  0
    9.4037    5.7657    6.7795 H   0  0  0  0  0  0  0  0  0  0  0  0
   10.4977    4.5823    6.5160 H   0  0  0  0  0  0  0  0  0  0  0  0
    9.4374    3.3239    7.9443 H   0  0  0  0  0  0  0  0  0  0  0  0
    8.2926    4.4725    8.1361 H   0  0  0  0  0  0  0  0  0  0  0  0
    7.3339    2.3801    7.3381 H   0  0  0  0  0  0  0  0  0  0  0  0
    8.6944    1.3473    5.6107 H   0  0  0  0  0  0  0  0  0  0  0  0
    9.8344    2.8259    4.1194 H   0  0  0  0  0  0  0  0  0  0  0  0
  1  2  1  0  0  0  0
  2  3  1  0  0  0  0
  2  9  1  0  0  0  0
  3  4  1  0  0  0  0
  4  5  1  0  0  0  0
  5  6  1  0  0  0  0
  5  7  1  0  0  0  0
  5  8  1  0  0  0  0
  9 10  2  0  0  0  0
  9 11  1  0  0  0  0
 11 12  1  0  0  0  0
 12 13  1  0  0  0  0
 13 14  1  0  0  0  0
 15 14  1  0  0  0  0
 15 11  1  0  0  0  0
 15 16  1  0  0  0  0
 16 17  1  0  0  0  0
 17 18  1  0  0  0  0
 18 19  2  0  0  0  0
 20 18  1  0  0  0  0
 20 21  1  0  0  0  0
 20 25  1  0  0  0  0
 22 21  1  0  0  0  0
 22 23  1  0  0  0  0
 22 27  1  0  0  0  0
 23 24  1  0  0  0  0
 25 24  1  0  0  0  0
 25 26  1  0  0  0  0
 26 27  2  0  0  0  0
  1 28  1  0  0  0  0
  1 29  1  0  0  0  0
  1 30  1  0  0  0  0
  2 31  1  0  0  0  0
  3 32  1  0  0  0  0
  3 33  1  0  0  0  0
  4 34  1  0  0  0  0
  4 35  1  0  0  0  0
  6 36  1  0  0  0  0
  6 37  1  0  0  0  0
  6 38  1  0  0  0  0
  7 39  1  0  0  0  0
  7 40  1  0  0  0  0
  7 41  1  0  0  0  0
  8 42  1  0  0  0  0
  8 43  1  0  0  0  0
  8 44  1  0  0  0  0
 12 45  1  0  0  0  0
 12 46  1  0  0  0  0
 13 47  1  0  0  0  0
 13 48  1  0  0  0  0
 14 49  1  0  0  0  0
 14 50  1  0  0  0  0
 15 51  1  0  0  0  0
 16 52  1  0  0  0  0
 16 53  1  0  0  0  0
 17 54  1  0  0  0  0
 20 55  1  0  0  0  0
 21 56  1  0  0  0  0
 21 57  1  0  0  0  0
 22 58  1  0  0  0  0
 23 59  1  0  0  0  0
 23 60  1  0  0  0  0
 24 61  1  0  0  0  0
 24 62  1  0  0  0  0
 25 63  1  0  0  0  0
 26 64  1  0  0  0  0
 27 65  1  0  0  0  0
M  END
$$$$
Z4121493648
          05302416093D 1   1.00000     0.00000     0
            
 65 67  0  0  0  0            999 V2000
   -0.4626    1.2925    1.2925 C   0  0  0  0  0  0  0  0  0  0  0  0
    1.0000    1.0000    1.0000 C   0  0  3  0  0  0  0  0  0  0  0  0
    1.2925    1.2925   -0.4626 C   0  0  0  0  0  0  0  0  0  0  0  0
    0.4150    0.4150   -1.3402 C   0  0  0  0  0  0  0  0  0  0  0  0
    0.7075    0.7075   -2.8028 C   0  0  0  0  0  0  0  0  0  0  0  0
   -0.1701   -0.1701   -3.6804 C   0  0  0  0  0  0  0  0  0  0  0  0
    0.4150    2.1701   -3.0953 C   0  0  0  0  0  0  0  0  0  0  0  0
    2.1701    0.4150   -3.0953 C   0  0  0  0  0  0  0  0  0  0  0  0
    1.8776    1.8776    1.8776 C   0  0  0  0  0  0  0  0  0  0  0  0
    1.3755    2.6482    2.6482 O   0  0  0  0  0  0  0  0  0  0  0  0
    3.2704    1.7868    1.7868 N   0  0  0  0  0  0  0  0  0  0  0  0
    4.0211    0.9040    0.8891 C   0  0  0  0  0  0  0  0  0  0  0  0
    5.3836    0.7488    1.5394 C   0  0  0  0  0  0  0  0  0  0  0  0
    5.2838    1.5091    2.8476 C   0  0  0  0  0  0  0  0  0  0  0  0
    4.2389    2.5619    2.5619 C   0  0  2  0  0  0  0  0  0  0  0  0
    3.6832    3.0321    3.8982 C   0  0  0  0  0  0  0  0  0  0  0  0
    4.7122    3.8002    4.6138 N   0  0  0  0  0  0  0  0  0  0  0  0
    5.7047    3.1465    5.2954 C   0  0  0  0  0  0  0  0  0  0  0  0
    5.7341    1.9470    5.3082 O   0  0  0  0  0  0  0  0  0  0  0  0
    6.7694    3.9413    6.0358 C   0  0  2  0  0  0  0  0  0  0  0  0
    7.7576    2.9696    6.6636 C   0  0  0  0  0  0  0  0  0  0  0  0
    7.8998    3.2291    8.1525 C   0  0  1  0  0  0  0  0  0  0  0  0
    8.2897    4.6727    8.4279 C   0  0  0  0  0  0  0  0  0  0  0  0
    7.2944    5.6155    7.7734 C   0  0  0  0  0  0  0  0  0  0  0  0
    6.1682    4.8350    7.1125 C   0  0  2  0  0  0  0  0  0  0  0  0
    5.6315    3.9635    8.2294 C   0  0  0  0  0  0  0  0  0  0  0  0
    6.5171    3.1564    8.7627 C   0  0  0  0  0  0  0  0  0  0  0  0
   -1.0400    0.7152    0.7152 H   0  0  0  0  0  0  0  0  0  0  0  0
   -0.6551    1.1001    2.2548 H   0  0  0  0  0  0  0  0  0  0  0  0
   -0.6551    2.2548    1.1001 H   0  0  0  0  0  0  0  0  0  0  0  0
    1.1925    0.0377    1.1925 H   0  0  0  0  0  0  0  0  0  0  0  0
    2.2548    1.1001   -0.6551 H   0  0  0  0  0  0  0  0  0  0  0  0
    1.1001    2.2548   -0.6551 H   0  0  0  0  0  0  0  0  0  0  0  0
    0.6074   -0.5473   -1.1477 H   0  0  0  0  0  0  0  0  0  0  0  0
   -0.5473    0.6074   -1.1477 H   0  0  0  0  0  0  0  0  0  0  0  0
    0.0224    0.0224   -4.6426 H   0  0  0  0  0  0  0  0  0  0  0  0
    0.0224   -1.1323   -3.4879 H   0  0  0  0  0  0  0  0  0  0  0  0
   -1.1323    0.0224   -3.4879 H   0  0  0  0  0  0  0  0  0  0  0  0
    0.6074    2.3625   -4.0576 H   0  0  0  0  0  0  0  0  0  0  0  0
   -0.5473    2.3625   -2.9029 H   0  0  0  0  0  0  0  0  0  0  0  0
    0.9923    2.7474   -2.5180 H   0  0  0  0  0  0  0  0  0  0  0  0
    2.3625    0.6074   -4.0576 H   0  0  0  0  0  0  0  0  0  0  0  0
    2.7474    0.9923   -2.5180 H   0  0  0  0  0  0  0  0  0  0  0  0
    2.3625   -0.5473   -2.9029 H   0  0  0  0  0  0  0  0  0  0  0  0
    4.1093    1.3172   -0.0172 H   0  0  0  0  0  0  0  0  0  0  0  0
    3.5672    0.0167    0.8082 H   0  0  0  0  0  0  0  0  0  0  0  0
    6.0969    1.1410    0.9586 H   0  0  0  0  0  0  0  0  0  0  0  0
    5.5844   -0.2162    1.7082 H   0  0  0  0  0  0  0  0  0  0  0  0
    4.9911    0.9066    3.5901 H   0  0  0  0  0  0  0  0  0  0  0  0
    6.1597    1.9293    3.0849 H   0  0  0  0  0  0  0  0  0  0  0  0
    4.6149    3.3210    2.0304 H   0  0  0  0  0  0  0  0  0  0  0  0
    2.8836    3.6117    3.7413 H   0  0  0  0  0  0  0  0  0  0  0  0
    3.4178    2.2391    4.4464 H   0  0  0  0  0  0  0  0  0  0  0  0
    4.6878    4.7999    4.6031 H   0  0  0  0  0  0  0  0  0  0  0  0
    7.2572    4.5150    5.3779 H   0  0  0  0  0  0  0  0  0  0  0  0
    8.6495    3.0805    6.2252 H   0  0  0  0  0  0  0  0  0  0  0  0
    7.4314    2.0347    6.5238 H   0  0  0  0  0  0  0  0  0  0  0  0
    8.5311    2.5845    8.5838 H   0  0  0  0  0  0  0  0  0  0  0  0
    9.2022    4.8454    8.0571 H   0  0  0  0  0  0  0  0  0  0  0  0
    8.2956    4.8312    9.4152 H   0  0  0  0  0  0  0  0  0  0  0  0
    6.9093    6.2212    8.4698 H   0  0  0  0  0  0  0  0  0  0  0  0
    7.7659    6.1613    7.0808 H   0  0  0  0  0  0  0  0  0  0  0  0
    5.4637    5.4405    6.7423 H   0  0  0  0  0  0  0  0  0  0  0  0
    4.6801    4.0006    8.5350 H   0  0  0  0  0  0  0  0  0  0  0  0
    6.2950    2.5385    9.5169 H   0  0  0  0  0  0  0  0  0  0  0  0
  1  2  1  0  0  0  0
  2  3  1  0  0  0  0
  2  9  1  0  0  0  0
  3  4  1  0  0  0  0
  4  5  1  0  0  0  0
  5  6  1  0  0  0  0
  5  7  1  0  0  0  0
  5  8  1  0  0  0  0
  9 10  2  0  0  0  0
  9 11  1  0  0  0  0
 11 12  1  0  0  0  0
 12 13  1  0  0  0  0
 13 14  1  0  0  0  0
 15 14  1  0  0  0  0
 15 11  1  0  0  0  0
 15 16  1  0  0  0  0
 16 17  1  0  0  0  0
 17 18  1  0  0  0  0
 18 19  2  0  0  0  0
 20 18  1  0  0  0  0
 20 21  1  0  0  0  0
 20 25  1  0  0  0  0
 22 21  1  0  0  0  0
 22 23  1  0  0  0  0
 22 27  1  0  0  0  0
 23 24  1  0  0  0  0
 25 24  1  0  0  0  0
 25 26  1  0  0  0  0
 26 27  2  0  0  0  0
  1 28  1  0  0  0  0
  1 29  1  0  0  0  0
  1 30  1  0  0  0  0
  2 31  1  0  0  0  0
  3 32  1  0  0  0  0
  3 33  1  0  0  0  0
  4 34  1  0  0  0  0
  4 35  1  0  0  0  0
  6 36  1  0  0  0  0
  6 37  1  0  0  0  0
  6 38  1  0  0  0  0
  7 39  1  0  0  0  0
  7 40  1  0  0  0  0
  7 41  1  0  0  0  0
  8 42  1  0  0  0  0
  8 43  1  0  0  0  0
  8 44  1  0  0  0  0
 12 45  1  0  0  0  0
 12 46  1  0  0  0  0
 13 47  1  0  0  0  0
 13 48  1  0  0  0  0
 14 49  1  0  0  0  0
 14 50  1  0  0  0  0
 15 51  1  0  0  0  0
 16 52  1  0  0  0  0
 16 53  1  0  0  0  0
 17 54  1  0  0  0  0
 20 55  1  0  0  0  0
 21 56  1  0  0  0  0
 21 57  1  0  0  0  0
 22 58  1  0  0  0  0
 23 59  1  0  0  0  0
 23 60  1  0  0  0  0
 24 61  1  0  0  0  0
 24 62  1  0  0  0  0
 25 63  1  0  0  0  0
 26 64  1  0  0  0  0
 27 65  1  0  0  0  0
M  END
$$$$
Z4121493648
          05302416093D 1   1.00000     0.00000     0
            
 65 67  0  0  0  0            999 V2000
   -0.4626    1.2925    1.2925 C   0  0  0  0  0  0  0  0  0  0  0  0
    1.0000    1.0000    1.0000 C   0  0  3  0  0  0  0  0  0  0  0  0
    1.2925    1.2925   -0.4626 C   0  0  0  0  0  0  0  0  0  0  0  0
    0.4150    0.4150   -1.3402 C   0  0  0  0  0  0  0  0  0  0  0  0
    0.7075    0.7075   -2.8028 C   0  0  0  0  0  0  0  0  0  0  0  0
   -0.1701   -0.1701   -3.6804 C   0  0  0  0  0  0  0  0  0  0  0  0
    0.4150    2.1701   -3.0953 C   0  0  0  0  0  0  0  0  0  0  0  0
    2.1701    0.4150   -3.0953 C   0  0  0  0  0  0  0  0  0  0  0  0
    1.8776    1.8776    1.8776 C   0  0  0  0  0  0  0  0  0  0  0  0
    1.3755    2.6482    2.6482 O   0  0  0  0  0  0  0  0  0  0  0  0
    3.2704    1.7868    1.7868 N   0  0  0  0  0  0  0  0  0  0  0  0
    4.0211    0.9040    0.8891 C   0  0  0  0  0  0  0  0  0  0  0  0
    5.3836    0.7488    1.5394 C   0  0  0  0  0  0  0  0  0  0  0  0
    5.2838    1.5091    2.8476 C   0  0  0  0  0  0  0  0  0  0  0  0
    4.2389    2.5619    2.5619 C   0  0  2  0  0  0  0  0  0  0  0  0
    3.6832    3.0321    3.8982 C   0  0  0  0  0  0  0  0  0  0  0  0
    4.7122    3.8002    4.6138 N   0  0  0  0  0  0  0  0  0  0  0  0
    5.7047    3.1465    5.2954 C   0  0  0  0  0  0  0  0  0  0  0  0
    5.7341    1.9470    5.3082 O   0  0  0  0  0  0  0  0  0  0  0  0
    6.7696    3.9415    6.0360 C   0  0  2  0  0  0  0  0  0  0  0  0
    6.0629    4.8737    7.0053 C   0  0  0  0  0  0  0  0  0  0  0  0
    6.0504    6.3042    6.4896 C   0  0  1  0  0  0  0  0  0  0  0  0
    7.4377    6.9048    6.5075 C   0  0  0  0  0  0  0  0  0  0  0  0
    8.3550    5.9221    5.7974 C   0  0  0  0  0  0  0  0  0  0  0  0
    7.5503    4.8421    5.0919 C   0  0  2  0  0  0  0  0  0  0  0  0
    6.6176    5.6937    4.2670 C   0  0  0  0  0  0  0  0  0  0  0  0
    5.8371    6.4595    5.0033 C   0  0  0  0  0  0  0  0  0  0  0  0
   -1.0400    0.7152    0.7152 H   0  0  0  0  0  0  0  0  0  0  0  0
   -0.6551    1.1001    2.2548 H   0  0  0  0  0  0  0  0  0  0  0  0
   -0.6551    2.2548    1.1001 H   0  0  0  0  0  0  0  0  0  0  0  0
    1.1925    0.0377    1.1925 H   0  0  0  0  0  0  0  0  0  0  0  0
    2.2548    1.1001   -0.6551 H   0  0  0  0  0  0  0  0  0  0  0  0
    1.1001    2.2548   -0.6551 H   0  0  0  0  0  0  0  0  0  0  0  0
    0.6074   -0.5473   -1.1477 H   0  0  0  0  0  0  0  0  0  0  0  0
   -0.5473    0.6074   -1.1477 H   0  0  0  0  0  0  0  0  0  0  0  0
    0.0224    0.0224   -4.6426 H   0  0  0  0  0  0  0  0  0  0  0  0
    0.0224   -1.1323   -3.4879 H   0  0  0  0  0  0  0  0  0  0  0  0
   -1.1323    0.0224   -3.4879 H   0  0  0  0  0  0  0  0  0  0  0  0
    0.6074    2.3625   -4.0576 H   0  0  0  0  0  0  0  0  0  0  0  0
   -0.5473    2.3625   -2.9029 H   0  0  0  0  0  0  0  0  0  0  0  0
    0.9923    2.7474   -2.5180 H   0  0  0  0  0  0  0  0  0  0  0  0
    2.3625    0.6074   -4.0576 H   0  0  0  0  0  0  0  0  0  0  0  0
    2.7474    0.9923   -2.5180 H   0  0  0  0  0  0  0  0  0  0  0  0
    2.3625   -0.5473   -2.9029 H   0  0  0  0  0  0  0  0  0  0  0  0
    4.1093    1.3172   -0.0172 H   0  0  0  0  0  0  0  0  0  0  0  0
    3.5672    0.0167    0.8082 H   0  0  0  0  0  0  0  0  0  0  0  0
    6.0969    1.1410    0.9586 H   0  0  0  0  0  0  0  0  0  0  0  0
    5.5844   -0.2162    1.7082 H   0  0  0  0  0  0  0  0  0  0  0  0
    4.9911    0.9066    3.5901 H   0  0  0  0  0  0  0  0  0  0  0  0
    6.1597    1.9293    3.0849 H   0  0  0  0  0  0  0  0  0  0  0  0
    4.6149    3.3210    2.0304 H   0  0  0  0  0  0  0  0  0  0  0  0
    2.8836    3.6117    3.7413 H   0  0  0  0  0  0  0  0  0  0  0  0
    3.4178    2.2391    4.4464 H   0  0  0  0  0  0  0  0  0  0  0  0
    4.6878    4.7999    4.6031 H   0  0  0  0  0  0  0  0  0  0  0  0
    7.3878    3.3276    6.5269 H   0  0  0  0  0  0  0  0  0  0  0  0
    6.5377    4.8492    7.8851 H   0  0  0  0  0  0  0  0  0  0  0  0
    5.1201    4.5633    7.1265 H   0  0  0  0  0  0  0  0  0  0  0  0
    5.4069    6.8682    7.0069 H   0  0  0  0  0  0  0  0  0  0  0  0
    7.7419    7.0390    7.4506 H   0  0  0  0  0  0  0  0  0  0  0  0
    7.4382    7.7828    6.0289 H   0  0  0  0  0  0  0  0  0  0  0  0
    8.9036    6.4154    5.1224 H   0  0  0  0  0  0  0  0  0  0  0  0
    8.9593    5.4940    6.4694 H   0  0  0  0  0  0  0  0  0  0  0  0
    8.1423    4.2967    4.4985 H   0  0  0  0  0  0  0  0  0  0  0  0
    6.5939    5.6789    3.2674 H   0  0  0  0  0  0  0  0  0  0  0  0
    5.1639    7.0872    4.6122 H   0  0  0  0  0  0  0  0  0  0  0  0
  1  2  1  0  0  0  0
  2  3  1  0  0  0  0
  2  9  1  0  0  0  0
  3  4  1  0  0  0  0
  4  5  1  0  0  0  0
  5  6  1  0  0  0  0
  5  7  1  0  0  0  0
  5  8  1  0  0  0  0
  9 10  2  0  0  0  0
  9 11  1  0  0  0  0
 11 12  1  0  0  0  0
 12 13  1  0  0  0  0
 13 14  1  0  0  0  0
 15 14  1  0  0  0  0
 15 11  1  0  0  0  0
 15 16  1  0  0  0  0
 16 17  1  0  0  0  0
 17 18  1  0  0  0  0
 18 19  2  0  0  0  0
 20 18  1  0  0  0  0
 20 21  1  0  0  0  0
 20 25  1  0  0  0  0
 22 21  1  0  0  0  0
 22 23  1  0  0  0  0
 22 27  1  0  0  0  0
 23 24  1  0  0  0  0
 25 24  1  0  0  0  0
 25 26  1  0  0  0  0
 26 27  2  0  0  0  0
  1 28  1  0  0  0  0
  1 29  1  0  0  0  0
  1 30  1  0  0  0  0
  2 31  1  0  0  0  0
  3 32  1  0  0  0  0
  3 33  1  0  0  0  0
  4 34  1  0  0  0  0
  4 35  1  0  0  0  0
  6 36  1  0  0  0  0
  6 37  1  0  0  0  0
  6 38  1  0  0  0  0
  7 39  1  0  0  0  0
  7 40  1  0  0  0  0
  7 41  1  0  0  0  0
  8 42  1  0  0  0  0
  8 43  1  0  0  0  0
  8 44  1  0  0  0  0
 12 45  1  0  0  0  0
 12 46  1  0  0  0  0
 13 47  1  0  0  0  0
 13 48  1  0  0  0  0
 14 49  1  0  0  0  0
 14 50  1  0  0  0  0
 15 51  1  0  0  0  0
 16 52  1  0  0  0  0
 16 53  1  0  0  0  0
 17 54  1  0  0  0  0
 20 55  1  0  0  0  0
 21 56  1  0  0  0  0
 21 57  1  0  0  0  0
 22 58  1  0  0  0  0
 23 59  1  0  0  0  0
 23 60  1  0  0  0  0
 24 61  1  0  0  0  0
 24 62  1  0  0  0  0
 25 63  1  0  0  0  0
 26 64  1  0  0  0  0
 27 65  1  0  0  0  0
M  END
$$$$
Z4121493648
          05302416093D 1   1.00000     0.00000     0
            
 65 67  0  0  0  0            999 V2000
   -0.4626    1.2925    1.2925 C   0  0  0  0  0  0  0  0  0  0  0  0
    1.0000    1.0000    1.0000 C   0  0  3  0  0  0  0  0  0  0  0  0
    1.2925    1.2925   -0.4626 C   0  0  0  0  0  0  0  0  0  0  0  0
    0.4150    0.4150   -1.3402 C   0  0  0  0  0  0  0  0  0  0  0  0
    0.7075    0.7075   -2.8028 C   0  0  0  0  0  0  0  0  0  0  0  0
   -0.1701   -0.1701   -3.6804 C   0  0  0  0  0  0  0  0  0  0  0  0
    0.4150    2.1701   -3.0953 C   0  0  0  0  0  0  0  0  0  0  0  0
    2.1701    0.4150   -3.0953 C   0  0  0  0  0  0  0  0  0  0  0  0
    1.8776    1.8776    1.8776 C   0  0  0  0  0  0  0  0  0  0  0  0
    1.3755    2.6482    2.6482 O   0  0  0  0  0  0  0  0  0  0  0  0
    3.2704    1.7868    1.7868 N   0  0  0  0  0  0  0  0  0  0  0  0
    4.0211    0.9040    0.8891 C   0  0  0  0  0  0  0  0  0  0  0  0
    5.3836    0.7488    1.5394 C   0  0  0  0  0  0  0  0  0  0  0  0
    5.2838    1.5091    2.8476 C   0  0  0  0  0  0  0  0  0  0  0  0
    4.2389    2.5619    2.5619 C   0  0  2  0  0  0  0  0  0  0  0  0
    3.6832    3.0321    3.8982 C   0  0  0  0  0  0  0  0  0  0  0  0
    4.7122    3.8002    4.6138 N   0  0  0  0  0  0  0  0  0  0  0  0
    4.4385    4.3278    5.8482 C   0  0  0  0  0  0  0  0  0  0  0  0
    3.3588    4.1629    6.3452 O   0  0  0  0  0  0  0  0  0  0  0  0
    5.5051    5.1240    6.5900 C   0  0  2  0  0  0  0  0  0  0  0  0
    6.6850    4.1810    6.7756 C   0  0  0  0  0  0  0  0  0  0  0  0
    6.8658    3.9261    8.2641 C   0  0  1  0  0  0  0  0  0  0  0  0
    5.5891    3.4922    8.9647 C   0  0  0  0  0  0  0  0  0  0  0  0
    4.5503    4.6015    8.9330 C   0  0  0  0  0  0  0  0  0  0  0  0
    5.0465    5.6440    7.9498 C   0  0  2  0  0  0  0  0  0  0  0  0
    6.2119    6.1523    8.7648 C   0  0  0  0  0  0  0  0  0  0  0  0
    7.1543    5.2522    8.9271 C   0  0  0  0  0  0  0  0  0  0  0  0
   -1.0400    0.7152    0.7152 H   0  0  0  0  0  0  0  0  0  0  0  0
   -0.6551    1.1001    2.2548 H   0  0  0  0  0  0  0  0  0  0  0  0
   -0.6551    2.2548    1.1001 H   0  0  0  0  0  0  0  0  0  0  0  0
    1.1925    0.0377    1.1925 H   0  0  0  0  0  0  0  0  0  0  0  0
    2.2548    1.1001   -0.6551 H   0  0  0  0  0  0  0  0  0  0  0  0
    1.1001    2.2548   -0.6551 H   0  0  0  0  0  0  0  0  0  0  0  0
    0.6074   -0.5473   -1.1477 H   0  0  0  0  0  0  0  0  0  0  0  0
   -0.5473    0.6074   -1.1477 H   0  0  0  0  0  0  0  0  0  0  0  0
    0.0224    0.0224   -4.6426 H   0  0  0  0  0  0  0  0  0  0  0  0
    0.0224   -1.1323   -3.4879 H   0  0  0  0  0  0  0  0  0  0  0  0
   -1.1323    0.0224   -3.4879 H   0  0  0  0  0  0  0  0  0  0  0  0
    0.6074    2.3625   -4.0576 H   0  0  0  0  0  0  0  0  0  0  0  0
   -0.5473    2.3625   -2.9029 H   0  0  0  0  0  0  0  0  0  0  0  0
    0.9923    2.7474   -2.5180 H   0  0  0  0  0  0  0  0  0  0  0  0
    2.3625    0.6074   -4.0576 H   0  0  0  0  0  0  0  0  0  0  0  0
    2.7474    0.9923   -2.5180 H   0  0  0  0  0  0  0  0  0  0  0  0
    2.3625   -0.5473   -2.9029 H   0  0  0  0  0  0  0  0  0  0  0  0
    4.1093    1.3172   -0.0172 H   0  0  0  0  0  0  0  0  0  0  0  0
    3.5672    0.0167    0.8082 H   0  0  0  0  0  0  0  0  0  0  0  0
    6.0969    1.1410    0.9586 H   0  0  0  0  0  0  0  0  0  0  0  0
    5.5844   -0.2162    1.7082 H   0  0  0  0  0  0  0  0  0  0  0  0
    4.9911    0.9066    3.5901 H   0  0  0  0  0  0  0  0  0  0  0  0
    6.1597    1.9293    3.0849 H   0  0  0  0  0  0  0  0  0  0  0  0
    4.6149    3.3210    2.0304 H   0  0  0  0  0  0  0  0  0  0  0  0
    2.8836    3.6117    3.7413 H   0  0  0  0  0  0  0  0  0  0  0  0
    3.4178    2.2391    4.4464 H   0  0  0  0  0  0  0  0  0  0  0  0
    5.6120    3.9376    4.1996 H   0  0  0  0  0  0  0  0  0  0  0  0
    5.7900    5.8970    6.0231 H   0  0  0  0  0  0  0  0  0  0  0  0
    7.5131    4.5984    6.4013 H   0  0  0  0  0  0  0  0  0  0  0  0
    6.5047    3.3176    6.3044 H   0  0  0  0  0  0  0  0  0  0  0  0
    7.6055    3.2737    8.4294 H   0  0  0  0  0  0  0  0  0  0  0  0
    5.7981    3.2662    9.9161 H   0  0  0  0  0  0  0  0  0  0  0  0
    5.2205    2.6850    8.5036 H   0  0  0  0  0  0  0  0  0  0  0  0
    3.6685    4.2380    8.6326 H   0  0  0  0  0  0  0  0  0  0  0  0
    4.4519    5.0060    9.8422 H   0  0  0  0  0  0  0  0  0  0  0  0
    4.3632    6.3649    7.8335 H   0  0  0  0  0  0  0  0  0  0  0  0
    6.2608    7.0773    9.1415 H   0  0  0  0  0  0  0  0  0  0  0  0
    7.9911    5.4296    9.4452 H   0  0  0  0  0  0  0  0  0  0  0  0
  1  2  1  0  0  0  0
  2  3  1  0  0  0  0
  2  9  1  0  0  0  0
  3  4  1  0  0  0  0
  4  5  1  0  0  0  0
  5  6  1  0  0  0  0
  5  7  1  0  0  0  0
  5  8  1  0  0  0  0
  9 10  2  0  0  0  0
  9 11  1  0  0  0  0
 11 12  1  0  0  0  0
 12 13  1  0  0  0  0
 13 14  1  0  0  0  0
 15 14  1  0  0  0  0
 15 11  1  0  0  0  0
 15 16  1  0  0  0  0
 16 17  1  0  0  0  0
 17 18  1  0  0  0  0
 18 19  2  0  0  0  0
 20 18  1  0  0  0  0
 20 21  1  0  0  0  0
 20 25  1  0  0  0  0
 22 21  1  0  0  0  0
 22 23  1  0  0  0  0
 22 27  1  0  0  0  0
 23 24  1  0  0  0  0
 25 24  1  0  0  0  0
 25 26  1  0  0  0  0
 26 27  2  0  0  0  0
  1 28  1  0  0  0  0
  1 29  1  0  0  0  0
  1 30  1  0  0  0  0
  2 31  1  0  0  0  0
  3 32  1  0  0  0  0
  3 33  1  0  0  0  0
  4 34  1  0  0  0  0
  4 35  1  0  0  0  0
  6 36  1  0  0  0  0
  6 37  1  0  0  0  0
  6 38  1  0  0  0  0
  7 39  1  0  0  0  0
  7 40  1  0  0  0  0
  7 41  1  0  0  0  0
  8 42  1  0  0  0  0
  8 43  1  0  0  0  0
  8 44  1  0  0  0  0
 12 45  1  0  0  0  0
 12 46  1  0  0  0  0
 13 47  1  0  0  0  0
 13 48  1  0  0  0  0
 14 49  1  0  0  0  0
 14 50  1  0  0  0  0
 15 51  1  0  0  0  0
 16 52  1  0  0  0  0
 16 53  1  0  0  0  0
 17 54  1  0  0  0  0
 20 55  1  0  0  0  0
 21 56  1  0  0  0  0
 21 57  1  0  0  0  0
 22 58  1  0  0  0  0
 23 59  1  0  0  0  0
 23 60  1  0  0  0  0
 24 61  1  0  0  0  0
 24 62  1  0  0  0  0
 25 63  1  0  0  0  0
 26 64  1  0  0  0  0
 27 65  1  0  0  0  0
M  END
$$$$
Z4121493648
          05302416093D 1   1.00000     0.00000     0
            
 65 67  0  0  0  0            999 V2000
   -0.4626    1.2925    1.2925 C   0  0  0  0  0  0  0  0  0  0  0  0
    1.0000    1.0000    1.0000 C   0  0  3  0  0  0  0  0  0  0  0  0
    1.2925    1.2925   -0.4626 C   0  0  0  0  0  0  0  0  0  0  0  0
    0.4150    0.4150   -1.3402 C   0  0  0  0  0  0  0  0  0  0  0  0
    0.7075    0.7075   -2.8028 C   0  0  0  0  0  0  0  0  0  0  0  0
   -0.1701   -0.1701   -3.6804 C   0  0  0  0  0  0  0  0  0  0  0  0
    0.4150    2.1701   -3.0953 C   0  0  0  0  0  0  0  0  0  0  0  0
    2.1701    0.4150   -3.0953 C   0  0  0  0  0  0  0  0  0  0  0  0
    1.8776    1.8776    1.8776 C   0  0  0  0  0  0  0  0  0  0  0  0
    1.3755    2.6482    2.6482 O   0  0  0  0  0  0  0  0  0  0  0  0
    3.2704    1.7868    1.7868 N   0  0  0  0  0  0  0  0  0  0  0  0
    4.0211    0.9040    0.8891 C   0  0  0  0  0  0  0  0  0  0  0  0
    5.3836    0.7488    1.5394 C   0  0  0  0  0  0  0  0  0  0  0  0
    5.2838    1.5091    2.8476 C   0  0  0  0  0  0  0  0  0  0  0  0
    4.2389    2.5619    2.5619 C   0  0  2  0  0  0  0  0  0  0  0  0
    3.6832    3.0321    3.8982 C   0  0  0  0  0  0  0  0  0  0  0  0
    4.7122    3.8002    4.6138 N   0  0  0  0  0  0  0  0  0  0  0  0
    4.4385    4.3278    5.8482 C   0  0  0  0  0  0  0  0  0  0  0  0
    3.3588    4.1629    6.3452 O   0  0  0  0  0  0  0  0  0  0  0  0
    5.5051    5.1240    6.5900 C   0  0  2  0  0  0  0  0  0  0  0  0
    4.8784    5.5425    7.9119 C   0  0  0  0  0  0  0  0  0  0  0  0
    4.7608    7.0589    7.9284 C   0  0  1  0  0  0  0  0  0  0  0  0
    4.0809    7.6280    6.6943 C   0  0  0  0  0  0  0  0  0  0  0  0
    4.9113    7.3644    5.4486 C   0  0  0  0  0  0  0  0  0  0  0  0
    5.9817    6.3618    5.8346 C   0  0  2  0  0  0  0  0  0  0  0  0
    6.7964    7.2690    6.7257 C   0  0  0  0  0  0  0  0  0  0  0  0
    6.1541    7.6305    7.8126 C   0  0  0  0  0  0  0  0  0  0  0  0
   -1.0400    0.7152    0.7152 H   0  0  0  0  0  0  0  0  0  0  0  0
   -0.6551    1.1001    2.2548 H   0  0  0  0  0  0  0  0  0  0  0  0
   -0.6551    2.2548    1.1001 H   0  0  0  0  0  0  0  0  0  0  0  0
    1.1925    0.0377    1.1925 H   0  0  0  0  0  0  0  0  0  0  0  0
    2.2548    1.1001   -0.6551 H   0  0  0  0  0  0  0  0  0  0  0  0
    1.1001    2.2548   -0.6551 H   0  0  0  0  0  0  0  0  0  0  0  0
    0.6074   -0.5473   -1.1477 H   0  0  0  0  0  0  0  0  0  0  0  0
   -0.5473    0.6074   -1.1477 H   0  0  0  0  0  0  0  0  0  0  0  0
    0.0224    0.0224   -4.6426 H   0  0  0  0  0  0  0  0  0  0  0  0
    0.0224   -1.1323   -3.4879 H   0  0  0  0  0  0  0  0  0  0  0  0
   -1.1323    0.0224   -3.4879 H   0  0  0  0  0  0  0  0  0  0  0  0
    0.6074    2.3625   -4.0576 H   0  0  0  0  0  0  0  0  0  0  0  0
   -0.5473    2.3625   -2.9029 H   0  0  0  0  0  0  0  0  0  0  0  0
    0.9923    2.7474   -2.5180 H   0  0  0  0  0  0  0  0  0  0  0  0
    2.3625    0.6074   -4.0576 H   0  0  0  0  0  0  0  0  0  0  0  0
    2.7474    0.9923   -2.5180 H   0  0  0  0  0  0  0  0  0  0  0  0
    2.3625   -0.5473   -2.9029 H   0  0  0  0  0  0  0  0  0  0  0  0
    4.1093    1.3172   -0.0172 H   0  0  0  0  0  0  0  0  0  0  0  0
    3.5672    0.0167    0.8082 H   0  0  0  0  0  0  0  0  0  0  0  0
    6.0969    1.1410    0.9586 H   0  0  0  0  0  0  0  0  0  0  0  0
    5.5844   -0.2162    1.7082 H   0  0  0  0  0  0  0  0  0  0  0  0
    4.9911    0.9066    3.5901 H   0  0  0  0  0  0  0  0  0  0  0  0
    6.1597    1.9293    3.0849 H   0  0  0  0  0  0  0  0  0  0  0  0
    4.6149    3.3210    2.0304 H   0  0  0  0  0  0  0  0  0  0  0  0
    2.8836    3.6117    3.7413 H   0  0  0  0  0  0  0  0  0  0  0  0
    3.4178    2.2391    4.4464 H   0  0  0  0  0  0  0  0  0  0  0  0
    5.6120    3.9376    4.1996 H   0  0  0  0  0  0  0  0  0  0  0  0
    6.2888    4.5303    6.7727 H   0  0  0  0  0  0  0  0  0  0  0  0
    5.4559    5.2402    8.6703 H   0  0  0  0  0  0  0  0  0  0  0  0
    3.9707    5.1323    8.0002 H   0  0  0  0  0  0  0  0  0  0  0  0
    4.3113    7.3751    8.7638 H   0  0  0  0  0  0  0  0  0  0  0  0
    3.9666    8.6148    6.8090 H   0  0  0  0  0  0  0  0  0  0  0  0
    3.1841    7.1987    6.5871 H   0  0  0  0  0  0  0  0  0  0  0  0
    4.3337    6.9885    4.7239 H   0  0  0  0  0  0  0  0  0  0  0  0
    5.3339    8.2133    5.1315 H   0  0  0  0  0  0  0  0  0  0  0  0
    6.5137    6.0950    5.0311 H   0  0  0  0  0  0  0  0  0  0  0  0
    7.7275    7.5636    6.5106 H   0  0  0  0  0  0  0  0  0  0  0  0
    6.5532    8.2324    8.5043 H   0  0  0  0  0  0  0  0  0  0  0  0
  1  2  1  0  0  0  0
  2  3  1  0  0  0  0
  2  9  1  0  0  0  0
  3  4  1  0  0  0  0
  4  5  1  0  0  0  0
  5  6  1  0  0  0  0
  5  7  1  0  0  0  0
  5  8  1  0  0  0  0
  9 10  2  0  0  0  0
  9 11  1  0  0  0  0
 11 12  1  0  0  0  0
 12 13  1  0  0  0  0
 13 14  1  0  0  0  0
 15 14  1  0  0  0  0
 15 11  1  0  0  0  0
 15 16  1  0  0  0  0
 16 17  1  0  0  0  0
 17 18  1  0  0  0  0
 18 19  2  0  0  0  0
 20 18  1  0  0  0  0
 20 21  1  0  0  0  0
 20 25  1  0  0  0  0
 22 21  1  0  0  0  0
 22 23  1  0  0  0  0
 22 27  1  0  0  0  0
 23 24  1  0  0  0  0
 25 24  1  0  0  0  0
 25 26  1  0  0  0  0
 26 27  2  0  0  0  0
  1 28  1  0  0  0  0
  1 29  1  0  0  0  0
  1 30  1  0  0  0  0
  2 31  1  0  0  0  0
  3 32  1  0  0  0  0
  3 33  1  0  0  0  0
  4 34  1  0  0  0  0
  4 35  1  0  0  0  0
  6 36  1  0  0  0  0
  6 37  1  0  0  0  0
  6 38  1  0  0  0  0
  7 39  1  0  0  0  0
  7 40  1  0  0  0  0
  7 41  1  0  0  0  0
  8 42  1  0  0  0  0
  8 43  1  0  0  0  0
  8 44  1  0  0  0  0
 12 45  1  0  0  0  0
 12 46  1  0  0  0  0
 13 47  1  0  0  0  0
 13 48  1  0  0  0  0
 14 49  1  0  0  0  0
 14 50  1  0  0  0  0
 15 51  1  0  0  0  0
 16 52  1  0  0  0  0
 16 53  1  0  0  0  0
 17 54  1  0  0  0  0
 20 55  1  0  0  0  0
 21 56  1  0  0  0  0
 21 57  1  0  0  0  0
 22 58  1  0  0  0  0
 23 59  1  0  0  0  0
 23 60  1  0  0  0  0
 24 61  1  0  0  0  0
 24 62  1  0  0  0  0
 25 63  1  0  0  0  0
 26 64  1  0  0  0  0
 27 65  1  0  0  0  0
M  END
$$$$
Z4121493648
          05302416093D 1   1.00000     0.00000     0
            
 65 67  0  0  0  0            999 V2000
   -0.4626    1.2925    1.2925 C   0  0  0  0  0  0  0  0  0  0  0  0
    1.0000    1.0000    1.0000 C   0  0  3  0  0  0  0  0  0  0  0  0
    1.2925    1.2925   -0.4626 C   0  0  0  0  0  0  0  0  0  0  0  0
    0.4150    0.4150   -1.3402 C   0  0  0  0  0  0  0  0  0  0  0  0
    0.7075    0.7075   -2.8028 C   0  0  0  0  0  0  0  0  0  0  0  0
   -0.1701   -0.1701   -3.6804 C   0  0  0  0  0  0  0  0  0  0  0  0
    0.4150    2.1701   -3.0953 C   0  0  0  0  0  0  0  0  0  0  0  0
    2.1701    0.4150   -3.0953 C   0  0  0  0  0  0  0  0  0  0  0  0
    1.8776    1.8776    1.8776 C   0  0  0  0  0  0  0  0  0  0  0  0
    1.3755    2.6482    2.6482 O   0  0  0  0  0  0  0  0  0  0  0  0
    3.2704    1.7868    1.7868 N   0  0  0  0  0  0  0  0  0  0  0  0
    4.0211    0.9040    0.8891 C   0  0  0  0  0  0  0  0  0  0  0  0
    5.3836    0.7488    1.5394 C   0  0  0  0  0  0  0  0  0  0  0  0
    5.2838    1.5091    2.8476 C   0  0  0  0  0  0  0  0  0  0  0  0
    4.2389    2.5619    2.5619 C   0  0  2  0  0  0  0  0  0  0  0  0
    3.6832    3.0321    3.8982 C   0  0  0  0  0  0  0  0  0  0  0  0
    4.7122    3.8002    4.6138 N   0  0  0  0  0  0  0  0  0  0  0  0
    4.4385    4.3278    5.8482 C   0  0  0  0  0  0  0  0  0  0  0  0
    5.2785    4.9548    6.4324 O   0  0  0  0  0  0  0  0  0  0  0  0
    3.0700    4.1188    6.4781 C   0  0  2  0  0  0  0  0  0  0  0  0
    2.0101    4.6874    5.5463 C   0  0  0  0  0  0  0  0  0  0  0  0
    1.1268    5.6835    6.2756 C   0  0  1  0  0  0  0  0  0  0  0  0
    0.5015    5.0645    7.5156 C   0  0  0  0  0  0  0  0  0  0  0  0
    1.5837    4.4913    8.4146 C   0  0  0  0  0  0  0  0  0  0  0  0
    2.9646    4.7804    7.8458 C   0  0  2  0  0  0  0  0  0  0  0  0
    2.9708    6.2845    7.6644 C   0  0  0  0  0  0  0  0  0  0  0  0
    2.0286    6.7406    6.8743 C   0  0  0  0  0  0  0  0  0  0  0  0
   -1.0400    0.7152    0.7152 H   0  0  0  0  0  0  0  0  0  0  0  0
   -0.6551    1.1001    2.2548 H   0  0  0  0  0  0  0  0  0  0  0  0
   -0.6551    2.2548    1.1001 H   0  0  0  0  0  0  0  0  0  0  0  0
    1.1925    0.0377    1.1925 H   0  0  0  0  0  0  0  0  0  0  0  0
    2.2548    1.1001   -0.6551 H   0  0  0  0  0  0  0  0  0  0  0  0
    1.1001    2.2548   -0.6551 H   0  0  0  0  0  0  0  0  0  0  0  0
    0.6074   -0.5473   -1.1477 H   0  0  0  0  0  0  0  0  0  0  0  0
   -0.5473    0.6074   -1.1477 H   0  0  0  0  0  0  0  0  0  0  0  0
    0.0224    0.0224   -4.6426 H   0  0  0  0  0  0  0  0  0  0  0  0
    0.0224   -1.1323   -3.4879 H   0  0  0  0  0  0  0  0  0  0  0  0
   -1.1323    0.0224   -3.4879 H   0  0  0  0  0  0  0  0  0  0  0  0
    0.6074    2.3625   -4.0576 H   0  0  0  0  0  0  0  0  0  0  0  0
   -0.5473    2.3625   -2.9029 H   0  0  0  0  0  0  0  0  0  0  0  0
    0.9923    2.7474   -2.5180 H   0  0  0  0  0  0  0  0  0  0  0  0
    2.3625    0.6074   -4.0576 H   0  0  0  0  0  0  0  0  0  0  0  0
    2.7474    0.9923   -2.5180 H   0  0  0  0  0  0  0  0  0  0  0  0
    2.3625   -0.5473   -2.9029 H   0  0  0  0  0  0  0  0  0  0  0  0
    4.1093    1.3172   -0.0172 H   0  0  0  0  0  0  0  0  0  0  0  0
    3.5672    0.0167    0.8082 H   0  0  0  0  0  0  0  0  0  0  0  0
    6.0969    1.1410    0.9586 H   0  0  0  0  0  0  0  0  0  0  0  0
    5.5844   -0.2162    1.7082 H   0  0  0  0  0  0  0  0  0  0  0  0
    4.9911    0.9066    3.5901 H   0  0  0  0  0  0  0  0  0  0  0  0
    6.1597    1.9293    3.0849 H   0  0  0  0  0  0  0  0  0  0  0  0
    4.6149    3.3210    2.0304 H   0  0  0  0  0  0  0  0  0  0  0  0
    2.8836    3.6117    3.7413 H   0  0  0  0  0  0  0  0  0  0  0  0
    3.4178    2.2391    4.4464 H   0  0  0  0  0  0  0  0  0  0  0  0
    5.6120    3.9376    4.1996 H   0  0  0  0  0  0  0  0  0  0  0  0
    2.9117    3.1371    6.5833 H   0  0  0  0  0  0  0  0  0  0  0  0
    1.4437    3.9397    5.1997 H   0  0  0  0  0  0  0  0  0  0  0  0
    2.4598    5.1475    4.7808 H   0  0  0  0  0  0  0  0  0  0  0  0
    0.4373    6.0818    5.6707 H   0  0  0  0  0  0  0  0  0  0  0  0
   -0.1226    4.3329    7.2413 H   0  0  0  0  0  0  0  0  0  0  0  0
   -0.0065    5.7661    8.0153 H   0  0  0  0  0  0  0  0  0  0  0  0
    1.5094    4.9047    9.3222 H   0  0  0  0  0  0  0  0  0  0  0  0
    1.4595    3.5018    8.4879 H   0  0  0  0  0  0  0  0  0  0  0  0
    3.6914    4.4774    8.4623 H   0  0  0  0  0  0  0  0  0  0  0  0
    3.6384    6.8805    8.1105 H   0  0  0  0  0  0  0  0  0  0  0  0
    1.9147    7.7153    6.6817 H   0  0  0  0  0  0  0  0  0  0  0  0
  1  2  1  0  0  0  0
  2  3  1  0  0  0  0
  2  9  1  0  0  0  0
  3  4  1  0  0  0  0
  4  5  1  0  0  0  0
  5  6  1  0  0  0  0
  5  7  1  0  0  0  0
  5  8  1  0  0  0  0
  9 10  2  0  0  0  0
  9 11  1  0  0  0  0
 11 12  1  0  0  0  0
 12 13  1  0  0  0  0
 13 14  1  0  0  0  0
 15 14  1  0  0  0  0
 15 11  1  0  0  0  0
 15 16  1  0  0  0  0
 16 17  1  0  0  0  0
 17 18  1  0  0  0  0
 18 19  2  0  0  0  0
 20 18  1  0  0  0  0
 20 21  1  0  0  0  0
 20 25  1  0  0  0  0
 22 21  1  0  0  0  0
 22 23  1  0  0  0  0
 22 27  1  0  0  0  0
 23 24  1  0  0  0  0
 25 24  1  0  0  0  0
 25 26  1  0  0  0  0
 26 27  2  0  0  0  0
  1 28  1  0  0  0  0
  1 29  1  0  0  0  0
  1 30  1  0  0  0  0
  2 31  1  0  0  0  0
  3 32  1  0  0  0  0
  3 33  1  0  0  0  0
  4 34  1  0  0  0  0
  4 35  1  0  0  0  0
  6 36  1  0  0  0  0
  6 37  1  0  0  0  0
  6 38  1  0  0  0  0
  7 39  1  0  0  0  0
  7 40  1  0  0  0  0
  7 41  1  0  0  0  0
  8 42  1  0  0  0  0
  8 43  1  0  0  0  0
  8 44  1  0  0  0  0
 12 45  1  0  0  0  0
 12 46  1  0  0  0  0
 13 47  1  0  0  0  0
 13 48  1  0  0  0  0
 14 49  1  0  0  0  0
 14 50  1  0  0  0  0
 15 51  1  0  0  0  0
 16 52  1  0  0  0  0
 16 53  1  0  0  0  0
 17 54  1  0  0  0  0
 20 55  1  0  0  0  0
 21 56  1  0  0  0  0
 21 57  1  0  0  0  0
 22 58  1  0  0  0  0
 23 59  1  0  0  0  0
 23 60  1  0  0  0  0
 24 61  1  0  0  0  0
 24 62  1  0  0  0  0
 25 63  1  0  0  0  0
 26 64  1  0  0  0  0
 27 65  1  0  0  0  0
M  END
$$$$
