Z4121492020
  MJ210100                      

 33 36  0  0  0  0  0  0  0  0999 V2000
   -5.9188    2.9578    0.0000 C   0  0  0  0  0  0  0  0  0  0  0  0
   -5.2868    2.4275    0.0000 C   0  0  0  0  0  0  0  0  0  0  0  0
   -4.5115    2.7096    0.0000 C   0  0  0  0  0  0  0  0  0  0  0  0
   -3.8795    2.1793    0.0000 C   0  0  0  0  0  0  0  0  0  0  0  0
   -3.4670    1.4649    0.0000 C   0  0  0  0  0  0  0  0  0  0  0  0
   -4.2920    1.4649    0.0000 C   0  0  0  0  0  0  0  0  0  0  0  0
   -3.2476    2.7096    0.0000 S   0  0  0  0  0  0  0  0  0  0  0  0
   -2.7173    2.0777    0.0000 O   0  0  0  0  0  0  0  0  0  0  0  0
   -3.7779    3.3416    0.0000 O   0  0  0  0  0  0  0  0  0  0  0  0
   -2.6156    3.2400    0.0000 N   0  0  0  0  0  0  0  0  0  0  0  0
   -2.7588    4.0524    0.0000 C   0  0  0  0  0  0  0  0  0  0  0  0
   -3.5341    4.3346    0.0000 O   0  0  0  0  0  0  0  0  0  0  0  0
   -2.1268    4.5827    0.0000 C   0  0  0  0  0  0  0  0  0  0  0  0
   -1.3516    4.3006    0.0000 C   0  0  0  0  0  0  0  0  0  0  0  0
   -0.7196    4.8309    0.0000 C   0  0  0  0  0  0  0  0  0  0  0  0
   -0.8629    5.6433    0.0000 C   0  0  0  0  0  0  0  0  0  0  0  0
   -0.2309    6.1736    0.0000 N   0  0  0  0  0  0  0  0  0  0  0  0
   -0.3741    6.9861    0.0000 C   0  0  0  0  0  0  0  0  0  0  0  0
    0.2577    7.5164    0.0000 C   0  0  0  0  0  0  0  0  0  0  0  0
    1.0330    7.2342    0.0000 C   0  0  0  0  0  0  0  0  0  0  0  0
    1.1762    6.4218    0.0000 C   0  0  0  0  0  0  0  0  0  0  0  0
    0.5442    5.8915    0.0000 C   0  0  0  0  0  0  0  0  0  0  0  0
   -1.6381    5.9255    0.0000 C   0  0  0  0  0  0  0  0  0  0  0  0
   -2.2701    5.3952    0.0000 C   0  0  0  0  0  0  0  0  0  0  0  0
   -1.7814    6.7380    0.0000 S   0  0  0  0  0  0  0  0  0  0  0  0
   -1.9247    7.5504    0.0000 O   0  0  0  0  0  0  0  0  0  0  0  0
   -0.9689    6.8812    0.0000 O   0  0  0  0  0  0  0  0  0  0  0  0
   -2.5939    6.5947    0.0000 N   0  0  0  0  0  0  0  0  0  0  0  0
   -2.8760    5.8195    0.0000 C   0  0  0  0  0  0  0  0  0  0  0  0
   -3.6885    5.6762    0.0000 C   0  0  0  0  0  0  0  0  0  0  0  0
   -4.2188    6.3082    0.0000 C   0  0  0  0  0  0  0  0  0  0  0  0
   -3.9366    7.0834    0.0000 C   0  0  0  0  0  0  0  0  0  0  0  0
   -3.1242    7.2267    0.0000 C   0  0  0  0  0  0  0  0  0  0  0  0
  1  2  2  0  0  0  0
  2  3  1  0  0  0  0
  3  4  1  0  0  0  0
  4  5  1  0  0  0  0
  5  6  1  0  0  0  0
  4  6  1  0  0  0  0
  4  7  1  0  0  0  0
  7  8  2  0  0  0  0
  7  9  2  0  0  0  0
  7 10  1  0  0  0  0
 10 11  1  0  0  0  0
 11 12  2  0  0  0  0
 11 13  1  0  0  0  0
 13 14  2  0  0  0  0
 14 15  1  0  0  0  0
 15 16  2  0  0  0  0
 16 17  1  0  0  0  0
 17 18  1  0  0  0  0
 18 19  1  0  0  0  0
 19 20  1  0  0  0  0
 20 21  1  0  0  0  0
 21 22  1  0  0  0  0
 17 22  1  0  0  0  0
 16 23  1  0  0  0  0
 23 24  2  0  0  0  0
 13 24  1  0  0  0  0
 23 25  1  0  0  0  0
 25 26  2  0  0  0  0
 25 27  2  0  0  0  0
 25 28  1  0  0  0  0
 28 29  1  0  0  0  0
 29 30  1  0  0  0  0
 30 31  1  0  0  0  0
 31 32  1  0  0  0  0
 32 33  1  0  0  0  0
 28 33  1  0  0  0  0
M  END
