Z4121492004
  MJ210100                      

 32 35  0  0  0  0  0  0  0  0999 V2000
    0.7782   -1.5353    0.0000 C   0  0  0  0  0  0  0  0  0  0  0  0
    0.0638   -1.9478    0.0000 C   0  0  0  0  0  0  0  0  0  0  0  0
    0.0638   -2.7728    0.0000 C   0  0  0  0  0  0  0  0  0  0  0  0
   -0.6506   -3.1853    0.0000 C   0  0  0  0  0  0  0  0  0  0  0  0
   -1.3651   -2.7728    0.0000 C   0  0  0  0  0  0  0  0  0  0  0  0
   -2.0796   -3.1853    0.0000 N   0  0  0  0  0  0  0  0  0  0  0  0
   -2.0796   -4.0103    0.0000 C   0  0  0  0  0  0  0  0  0  0  0  0
   -1.3651   -4.4228    0.0000 O   0  0  0  0  0  0  0  0  0  0  0  0
   -2.7940   -4.4228    0.0000 N   0  0  0  0  0  0  0  0  0  0  0  0
   -2.7940   -5.2478    0.0000 C   0  0  0  0  0  0  0  0  0  0  0  0
   -2.1266   -5.7327    0.0000 N   0  0  0  0  0  0  0  0  0  0  0  0
   -2.3815   -6.5174    0.0000 N   0  0  0  0  0  0  0  0  0  0  0  0
   -3.2065   -6.5174    0.0000 C   0  0  0  0  0  0  0  0  0  0  0  0
   -3.4615   -5.7327    0.0000 C   0  0  0  0  0  0  0  0  0  0  0  0
   -1.8966   -7.1848    0.0000 C   0  0  0  0  0  0  0  0  0  0  0  0
   -1.0761   -7.0986    0.0000 C   0  0  0  0  0  0  0  0  0  0  0  0
   -0.5912   -7.7660    0.0000 C   0  0  0  0  0  0  0  0  0  0  0  0
   -0.9268   -8.5197    0.0000 O   0  0  0  0  0  0  0  0  0  0  0  0
   -1.7472   -8.6059    0.0000 C   0  0  0  0  0  0  0  0  0  0  0  0
   -2.2322   -7.9385    0.0000 C   0  0  0  0  0  0  0  0  0  0  0  0
   -1.3651   -1.9478    0.0000 C   0  0  0  0  0  0  0  0  0  0  0  0
   -0.6506   -1.5353    0.0000 C   0  0  0  0  0  0  0  0  0  0  0  0
   -0.6506   -0.7103    0.0000 S   0  0  0  0  0  0  0  0  0  0  0  0
    0.1743   -0.7103    0.0000 O   0  0  0  0  0  0  0  0  0  0  0  0
   -1.4756   -0.7103    0.0000 O   0  0  0  0  0  0  0  0  0  0  0  0
   -0.6506    0.1146    0.0000 N   0  0  0  0  0  0  0  0  0  0  0  0
   -1.3939    0.4725    0.0000 C   0  0  0  0  0  0  0  0  0  0  0  0
   -1.5775    1.2768    0.0000 C   0  0  0  0  0  0  0  0  0  0  0  0
   -1.0631    1.9218    0.0000 C   0  0  0  0  0  0  0  0  0  0  0  0
   -0.2381    1.9218    0.0000 C   0  0  0  0  0  0  0  0  0  0  0  0
    0.2762    1.2768    0.0000 C   0  0  0  0  0  0  0  0  0  0  0  0
    0.0926    0.4725    0.0000 C   0  0  0  0  0  0  0  0  0  0  0  0
  1  2  1  0  0  0  0
  2  3  2  0  0  0  0
  3  4  1  0  0  0  0
  4  5  2  0  0  0  0
  5  6  1  0  0  0  0
  6  7  1  0  0  0  0
  7  8  2  0  0  0  0
  7  9  1  0  0  0  0
  9 10  1  0  0  0  0
 10 11  2  0  0  0  0
 11 12  1  0  0  0  0
 12 13  1  0  0  0  0
 13 14  2  0  0  0  0
 10 14  1  0  0  0  0
 12 15  1  0  0  0  0
 15 16  1  0  0  0  0
 16 17  1  0  0  0  0
 17 18  1  0  0  0  0
 18 19  1  0  0  0  0
 19 20  1  0  0  0  0
 15 20  1  0  0  0  0
  5 21  1  0  0  0  0
 21 22  2  0  0  0  0
  2 22  1  0  0  0  0
 22 23  1  0  0  0  0
 23 24  2  0  0  0  0
 23 25  2  0  0  0  0
 23 26  1  0  0  0  0
 26 27  1  0  0  0  0
 27 28  1  0  0  0  0
 28 29  1  0  0  0  0
 29 30  1  0  0  0  0
 30 31  1  0  0  0  0
 31 32  1  0  0  0  0
 26 32  1  0  0  0  0
M  END
