Z4121493648
  MJ210100                      

 27 29  0  0  1  0  0  0  0  0999 V2000
   -4.4663    0.3920    0.0000 C   0  0  0  0  0  0  0  0  0  0  0  0
   -3.8532   -0.1599    0.0000 C   0  0  0  0  0  0  0  0  0  0  0  0
   -4.0247   -0.9669    0.0000 C   0  0  0  0  0  0  0  0  0  0  0  0
   -4.8093   -1.2218    0.0000 C   0  0  0  0  0  0  0  0  0  0  0  0
   -4.9809   -2.0288    0.0000 C   0  0  0  0  0  0  0  0  0  0  0  0
   -5.1524   -2.8358    0.0000 C   0  0  0  0  0  0  0  0  0  0  0  0
   -4.1739   -2.2003    0.0000 C   0  0  0  0  0  0  0  0  0  0  0  0
   -5.7879   -1.8573    0.0000 C   0  0  0  0  0  0  0  0  0  0  0  0
   -3.0686    0.0949    0.0000 C   0  0  0  0  0  0  0  0  0  0  0  0
   -2.4555   -0.4570    0.0000 O   0  0  0  0  0  0  0  0  0  0  0  0
   -2.8970    0.9019    0.0000 N   0  0  0  0  0  0  0  0  0  0  0  0
   -3.4491    1.5150    0.0000 C   0  0  0  0  0  0  0  0  0  0  0  0
   -3.0366    2.2294    0.0000 C   0  0  0  0  0  0  0  0  0  0  0  0
   -2.2296    2.0580    0.0000 C   0  0  0  0  0  0  0  0  0  0  0  0
   -2.1433    1.2375    0.0000 C   0  0  0  0  0  0  0  0  0  0  0  0
   -1.4289    0.8250    0.0000 C   0  0  0  0  0  0  0  0  0  0  0  0
   -1.4289    0.0000    0.0000 N   0  0  0  0  0  0  0  0  0  0  0  0
   -0.7144   -0.4125    0.0000 C   0  0  0  0  0  0  0  0  0  0  0  0
   -0.7144   -1.2375    0.0000 O   0  0  0  0  0  0  0  0  0  0  0  0
    0.0000    0.0000    0.0000 C   0  0  0  0  0  0  0  0  0  0  0  0
    0.0000    0.8250    0.0000 C   0  0  0  0  0  0  0  0  0  0  0  0
    0.7144    1.2375    0.0000 C   0  0  0  0  0  0  0  0  0  0  0  0
    1.4289    0.8250    0.0000 C   0  0  0  0  0  0  0  0  0  0  0  0
    1.4289    0.0000    0.0000 C   0  0  0  0  0  0  0  0  0  0  0  0
    0.7144   -0.4125    0.0000 C   0  0  0  0  0  0  0  0  0  0  0  0
    0.8519    0.1375    0.0000 C   0  0  0  0  0  0  0  0  0  0  0  0
    0.8519    0.6874    0.0000 C   0  0  0  0  0  0  0  0  0  0  0  0
  1  2  1  0  0  0  0
  2  3  1  0  0  0  0
  3  4  1  0  0  0  0
  4  5  1  0  0  0  0
  5  6  1  0  0  0  0
  5  7  1  0  0  0  0
  5  8  1  0  0  0  0
  2  9  1  0  0  0  0
  9 10  2  0  0  0  0
  9 11  1  0  0  0  0
 11 12  1  0  0  0  0
 12 13  1  0  0  0  0
 13 14  1  0  0  0  0
 15 14  1  0  0  0  0
 15 11  1  0  0  0  0
 15 16  1  6  0  0  0
 16 17  1  0  0  0  0
 17 18  1  0  0  0  0
 18 19  2  0  0  0  0
 20 18  1  6  0  0  0
 20 21  1  0  0  0  0
 22 21  1  1  0  0  0
 22 23  1  0  0  0  0
 23 24  1  0  0  0  0
 25 24  1  1  0  0  0
 20 25  1  0  0  0  0
 25 26  1  0  0  0  0
 26 27  2  0  0  0  0
 22 27  1  0  0  0  0
M  END
