Z4121492004_0
          05302416083D 1   1.00000     0.00000     0
            
 63 66  0  0  0  0            999 V2000
   -1.8243   -3.9422    1.0200 C   0  0  0  0  0  0  0  0  0  0  0  0
   -1.0866   -2.6133    0.9990 C   0  0  0  0  0  0  0  0  0  0  0  0
    0.0604   -2.4754    1.7746 C   0  0  0  0  0  0  0  0  0  0  0  0
    0.7582   -1.2717    1.7770 C   0  0  0  0  0  0  0  0  0  0  0  0
    0.2998   -0.2127    1.0000 C   0  0  0  0  0  0  0  0  0  0  0  0
    1.0000    1.0000    1.0000 N   0  0  0  0  0  0  0  0  0  0  0  0
    2.3700    1.0000    1.0000 C   0  0  0  0  0  0  0  0  0  0  0  0
    2.9700   -0.0392    1.0000 O   0  0  0  0  0  0  0  0  0  0  0  0
    3.0550    2.1865    1.0000 N   0  0  0  0  0  0  0  0  0  0  0  0
    2.3548    3.3992    1.0000 C   0  0  0  0  0  0  0  0  0  0  0  0
    2.6753    4.4721    0.3170 N   0  0  0  0  0  0  0  0  0  0  0  0
    1.7898    5.4103    0.5622 N   0  0  0  0  0  0  0  0  0  0  0  0
    0.8496    4.9571    1.4369 C   0  0  0  0  0  0  0  0  0  0  0  0
    1.1811    3.6709    1.7344 C   0  0  0  0  0  0  0  0  0  0  0  0
    1.8113    6.7629   -0.0214 C   0  0  0  0  0  0  0  0  0  0  0  0
    3.0926    7.4907    0.3515 C   0  0  0  0  0  0  0  0  0  0  0  0
    3.1084    8.8607   -0.3077 C   0  0  0  0  0  0  0  0  0  0  0  0
    3.0045    8.7348   -1.7193 O   0  0  0  0  0  0  0  0  0  0  0  0
    1.8142    8.0707   -2.1219 C   0  0  0  0  0  0  0  0  0  0  0  0
    1.7412    6.6683   -1.5378 C   0  0  0  0  0  0  0  0  0  0  0  0
   -0.8455   -0.3395    0.2209 C   0  0  0  0  0  0  0  0  0  0  0  0
   -1.5361   -1.5470    0.2255 C   0  0  0  0  0  0  0  0  0  0  0  0
   -2.9664   -1.6851   -0.7560 S   0  0  0  0  0  0  0  0  0  0  0  0
   -3.8803   -2.6148   -0.1443 O   0  0  0  0  0  0  0  0  0  0  0  0
   -3.5974   -0.3956   -0.8689 O   0  0  0  0  0  0  0  0  0  0  0  0
   -2.5247   -2.2647   -2.3587 N   0  0  0  0  0  0  0  0  0  0  0  0
   -1.9682   -3.6234   -2.2327 C   0  0  0  0  0  0  0  0  0  0  0  0
   -1.4922   -4.2130   -3.5545 C   0  0  0  0  0  0  0  0  0  0  0  0
   -0.1826   -3.6008   -4.0356 C   0  0  0  0  0  0  0  0  0  0  0  0
   -0.3664   -2.4036   -4.9573 C   0  0  0  0  0  0  0  0  0  0  0  0
   -1.5224   -1.5064   -4.5383 C   0  0  0  0  0  0  0  0  0  0  0  0
   -1.6467   -1.2887   -3.0314 C   0  0  0  0  0  0  0  0  0  0  0  0
   -1.3504   -4.5769    1.6304 H   0  0  0  0  0  0  0  0  0  0  0  0
   -2.7584   -3.7998    1.3472 H   0  0  0  0  0  0  0  0  0  0  0  0
   -1.8493   -4.3242    0.0962 H   0  0  0  0  0  0  0  0  0  0  0  0
    0.3833   -3.2416    2.3302 H   0  0  0  0  0  0  0  0  0  0  0  0
    1.5828   -1.1685    2.3331 H   0  0  0  0  0  0  0  0  0  0  0  0
    0.5000    1.8660    1.0000 H   0  0  0  0  0  0  0  0  0  0  0  0
    4.0550    2.1865    1.0000 H   0  0  0  0  0  0  0  0  0  0  0  0
    0.0676    5.4696    1.7916 H   0  0  0  0  0  0  0  0  0  0  0  0
    0.6939    3.0480    2.3465 H   0  0  0  0  0  0  0  0  0  0  0  0
    1.0254    7.2818    0.3150 H   0  0  0  0  0  0  0  0  0  0  0  0
    3.8803    6.9607    0.0375 H   0  0  0  0  0  0  0  0  0  0  0  0
    3.1377    7.5983    1.3447 H   0  0  0  0  0  0  0  0  0  0  0  0
    2.3370    9.3985    0.0324 H   0  0  0  0  0  0  0  0  0  0  0  0
    3.9644    9.3252   -0.0808 H   0  0  0  0  0  0  0  0  0  0  0  0
    1.7966    8.0096   -3.1199 H   0  0  0  0  0  0  0  0  0  0  0  0
    1.0246    8.5969   -1.8062 H   0  0  0  0  0  0  0  0  0  0  0  0
    0.8807    6.2364   -1.8079 H   0  0  0  0  0  0  0  0  0  0  0  0
    2.5083    6.1233   -1.8761 H   0  0  0  0  0  0  0  0  0  0  0  0
   -1.1680    0.4268   -0.3348 H   0  0  0  0  0  0  0  0  0  0  0  0
   -2.6761   -4.2212   -1.8565 H   0  0  0  0  0  0  0  0  0  0  0  0
   -1.1916   -3.5897   -1.6036 H   0  0  0  0  0  0  0  0  0  0  0  0
   -2.1944   -4.0513   -4.2479 H   0  0  0  0  0  0  0  0  0  0  0  0
   -1.3606   -5.1973   -3.4365 H   0  0  0  0  0  0  0  0  0  0  0  0
    0.3310   -4.3027   -4.5291 H   0  0  0  0  0  0  0  0  0  0  0  0
    0.3401   -3.3057   -3.2358 H   0  0  0  0  0  0  0  0  0  0  0  0
    0.4753   -1.8637   -4.9509 H   0  0  0  0  0  0  0  0  0  0  0  0
   -0.5411   -2.7377   -5.8835 H   0  0  0  0  0  0  0  0  0  0  0  0
   -1.3979   -0.6144   -4.9728 H   0  0  0  0  0  0  0  0  0  0  0  0
   -2.3722   -1.9203   -4.8645 H   0  0  0  0  0  0  0  0  0  0  0  0
   -0.7345   -1.3543   -2.6272 H   0  0  0  0  0  0  0  0  0  0  0  0
   -2.0156   -0.3725   -2.8747 H   0  0  0  0  0  0  0  0  0  0  0  0
  1  2  1  0  0  0  0
  2  3  2  0  0  0  0
  2 22  1  0  0  0  0
  3  4  1  0  0  0  0
  4  5  2  0  0  0  0
  5  6  1  0  0  0  0
  5 21  1  0  0  0  0
  6  7  1  0  0  0  0
  7  8  2  0  0  0  0
  7  9  1  0  0  0  0
  9 10  1  0  0  0  0
 10 11  2  0  0  0  0
 10 14  1  0  0  0  0
 11 12  1  0  0  0  0
 12 13  1  0  0  0  0
 12 15  1  0  0  0  0
 13 14  2  0  0  0  0
 15 16  1  0  0  0  0
 15 20  1  0  0  0  0
 16 17  1  0  0  0  0
 17 18  1  0  0  0  0
 18 19  1  0  0  0  0
 19 20  1  0  0  0  0
 21 22  2  0  0  0  0
 22 23  1  0  0  0  0
 23 24  2  0  0  0  0
 23 25  2  0  0  0  0
 23 26  1  0  0  0  0
 26 27  1  0  0  0  0
 26 32  1  0  0  0  0
 27 28  1  0  0  0  0
 28 29  1  0  0  0  0
 29 30  1  0  0  0  0
 30 31  1  0  0  0  0
 31 32  1  0  0  0  0
  1 33  1  0  0  0  0
  1 34  1  0  0  0  0
  1 35  1  0  0  0  0
  3 36  1  0  0  0  0
  4 37  1  0  0  0  0
  6 38  1  0  0  0  0
  9 39  1  0  0  0  0
 13 40  1  0  0  0  0
 14 41  1  0  0  0  0
 15 42  1  0  0  0  0
 16 43  1  0  0  0  0
 16 44  1  0  0  0  0
 17 45  1  0  0  0  0
 17 46  1  0  0  0  0
 19 47  1  0  0  0  0
 19 48  1  0  0  0  0
 20 49  1  0  0  0  0
 20 50  1  0  0  0  0
 21 51  1  0  0  0  0
 27 52  1  0  0  0  0
 27 53  1  0  0  0  0
 28 54  1  0  0  0  0
 28 55  1  0  0  0  0
 29 56  1  0  0  0  0
 29 57  1  0  0  0  0
 30 58  1  0  0  0  0
 30 59  1  0  0  0  0
 31 60  1  0  0  0  0
 31 61  1  0  0  0  0
 32 62  1  0  0  0  0
 32 63  1  0  0  0  0
M  END
$$$$
