
          05302416083D 1   1.00000     0.00000     0
            
 63 66  0  0  0  0            999 V2000
   -1.8243   -3.9422    1.0200 C   0  0  0  0  0  0  0  0  0  0  0  0
   -1.0866   -2.6133    0.9990 C   0  0  0  0  0  0  0  0  0  0  0  0
    0.0604   -2.4754    1.7746 C   0  0  0  0  0  0  0  0  0  0  0  0
    0.7582   -1.2717    1.7770 C   0  0  0  0  0  0  0  0  0  0  0  0
    0.2998   -0.2127    1.0000 C   0  0  0  0  0  0  0  0  0  0  0  0
    1.0000    1.0000    1.0000 N   0  0  0  0  0  0  0  0  0  0  0  0
    2.3700    1.0000    1.0000 C   0  0  0  0  0  0  0  0  0  0  0  0
    2.9700   -0.0392    1.0000 O   0  0  0  0  0  0  0  0  0  0  0  0
    3.0550    2.1865    1.0000 N   0  0  0  0  0  0  0  0  0  0  0  0
    2.3548    3.3992    1.0000 C   0  0  0  0  0  0  0  0  0  0  0  0
    2.6753    4.4721    0.3170 N   0  0  0  0  0  0  0  0  0  0  0  0
    1.7898    5.4103    0.5622 N   0  0  0  0  0  0  0  0  0  0  0  0
    0.8496    4.9571    1.4369 C   0  0  0  0  0  0  0  0  0  0  0  0
    1.1811    3.6709    1.7344 C   0  0  0  0  0  0  0  0  0  0  0  0
    1.8113    6.7629   -0.0214 C   0  0  0  0  0  0  0  0  0  0  0  0
    3.0926    7.4907    0.3515 C   0  0  0  0  0  0  0  0  0  0  0  0
    3.1084    8.8607   -0.3077 C   0  0  0  0  0  0  0  0  0  0  0  0
    3.0045    8.7348   -1.7193 O   0  0  0  0  0  0  0  0  0  0  0  0
    1.8142    8.0707   -2.1219 C   0  0  0  0  0  0  0  0  0  0  0  0
    1.7412    6.6683   -1.5378 C   0  0  0  0  0  0  0  0  0  0  0  0
   -0.8455   -0.3395    0.2209 C   0  0  0  0  0  0  0  0  0  0  0  0
   -1.5361   -1.5470    0.2255 C   0  0  0  0  0  0  0  0  0  0  0  0
   -2.9664   -1.6851   -0.7560 S   0  0  0  0  0  0  0  0  0  0  0  0
   -3.8803   -2.6148   -0.1443 O   0  0  0  0  0  0  0  0  0  0  0  0
   -3.5974   -0.3956   -0.8689 O   0  0  0  0  0  0  0  0  0  0  0  0
   -2.5247   -2.2647   -2.3587 N   0  0  0  0  0  0  0  0  0  0  0  0
   -1.9682   -3.6234   -2.2327 C   0  0  0  0  0  0  0  0  0  0  0  0
   -1.4922   -4.2130   -3.5545 C   0  0  0  0  0  0  0  0  0  0  0  0
   -0.1826   -3.6008   -4.0356 C   0  0  0  0  0  0  0  0  0  0  0  0
   -0.3664   -2.4036   -4.9573 C   0  0  0  0  0  0  0  0  0  0  0  0
   -1.5224   -1.5064   -4.5383 C   0  0  0  0  0  0  0  0  0  0  0  0
   -1.6467   -1.2887   -3.0314 C   0  0  0  0  0  0  0  0  0  0  0  0
   -1.3504   -4.5769    1.6304 H   0  0  0  0  0  0  0  0  0  0  0  0
   -2.7584   -3.7998    1.3472 H   0  0  0  0  0  0  0  0  0  0  0  0
   -1.8493   -4.3242    0.0962 H   0  0  0  0  0  0  0  0  0  0  0  0
    0.3833   -3.2416    2.3302 H   0  0  0  0  0  0  0  0  0  0  0  0
    1.5828   -1.1685    2.3331 H   0  0  0  0  0  0  0  0  0  0  0  0
    0.5000    1.8660    1.0000 H   0  0  0  0  0  0  0  0  0  0  0  0
    4.0550    2.1865    1.0000 H   0  0  0  0  0  0  0  0  0  0  0  0
    0.0676    5.4696    1.7916 H   0  0  0  0  0  0  0  0  0  0  0  0
    0.6939    3.0480    2.3465 H   0  0  0  0  0  0  0  0  0  0  0  0
    1.0254    7.2818    0.3150 H   0  0  0  0  0  0  0  0  0  0  0  0
    3.8803    6.9607    0.0375 H   0  0  0  0  0  0  0  0  0  0  0  0
    3.1377    7.5983    1.3447 H   0  0  0  0  0  0  0  0  0  0  0  0
    2.3370    9.3985    0.0324 H   0  0  0  0  0  0  0  0  0  0  0  0
    3.9644    9.3252   -0.0808 H   0  0  0  0  0  0  0  0  0  0  0  0
    1.7966    8.0096   -3.1199 H   0  0  0  0  0  0  0  0  0  0  0  0
    1.0246    8.5969   -1.8062 H   0  0  0  0  0  0  0  0  0  0  0  0
    0.8807    6.2364   -1.8079 H   0  0  0  0  0  0  0  0  0  0  0  0
    2.5083    6.1233   -1.8761 H   0  0  0  0  0  0  0  0  0  0  0  0
   -1.1680    0.4268   -0.3348 H   0  0  0  0  0  0  0  0  0  0  0  0
   -2.6761   -4.2212   -1.8565 H   0  0  0  0  0  0  0  0  0  0  0  0
   -1.1916   -3.5897   -1.6036 H   0  0  0  0  0  0  0  0  0  0  0  0
   -2.1944   -4.0513   -4.2479 H   0  0  0  0  0  0  0  0  0  0  0  0
   -1.3606   -5.1973   -3.4365 H   0  0  0  0  0  0  0  0  0  0  0  0
    0.3310   -4.3027   -4.5291 H   0  0  0  0  0  0  0  0  0  0  0  0
    0.3401   -3.3057   -3.2358 H   0  0  0  0  0  0  0  0  0  0  0  0
    0.4753   -1.8637   -4.9509 H   0  0  0  0  0  0  0  0  0  0  0  0
   -0.5411   -2.7377   -5.8835 H   0  0  0  0  0  0  0  0  0  0  0  0
   -1.3979   -0.6144   -4.9728 H   0  0  0  0  0  0  0  0  0  0  0  0
   -2.3722   -1.9203   -4.8645 H   0  0  0  0  0  0  0  0  0  0  0  0
   -0.7345   -1.3543   -2.6272 H   0  0  0  0  0  0  0  0  0  0  0  0
   -2.0156   -0.3725   -2.8747 H   0  0  0  0  0  0  0  0  0  0  0  0
  1  2  1  0  0  0  0
  2  3  2  0  0  0  0
  2 22  1  0  0  0  0
  3  4  1  0  0  0  0
  4  5  2  0  0  0  0
  5  6  1  0  0  0  0
  5 21  1  0  0  0  0
  6  7  1  0  0  0  0
  7  8  2  0  0  0  0
  7  9  1  0  0  0  0
  9 10  1  0  0  0  0
 10 11  2  0  0  0  0
 10 14  1  0  0  0  0
 11 12  1  0  0  0  0
 12 13  1  0  0  0  0
 12 15  1  0  0  0  0
 13 14  2  0  0  0  0
 15 16  1  0  0  0  0
 15 20  1  0  0  0  0
 16 17  1  0  0  0  0
 17 18  1  0  0  0  0
 18 19  1  0  0  0  0
 19 20  1  0  0  0  0
 21 22  2  0  0  0  0
 22 23  1  0  0  0  0
 23 24  2  0  0  0  0
 23 25  2  0  0  0  0
 23 26  1  0  0  0  0
 26 27  1  0  0  0  0
 26 32  1  0  0  0  0
 27 28  1  0  0  0  0
 28 29  1  0  0  0  0
 29 30  1  0  0  0  0
 30 31  1  0  0  0  0
 31 32  1  0  0  0  0
  1 33  1  0  0  0  0
  1 34  1  0  0  0  0
  1 35  1  0  0  0  0
  3 36  1  0  0  0  0
  4 37  1  0  0  0  0
  6 38  1  0  0  0  0
  9 39  1  0  0  0  0
 13 40  1  0  0  0  0
 14 41  1  0  0  0  0
 15 42  1  0  0  0  0
 16 43  1  0  0  0  0
 16 44  1  0  0  0  0
 17 45  1  0  0  0  0
 17 46  1  0  0  0  0
 19 47  1  0  0  0  0
 19 48  1  0  0  0  0
 20 49  1  0  0  0  0
 20 50  1  0  0  0  0
 21 51  1  0  0  0  0
 27 52  1  0  0  0  0
 27 53  1  0  0  0  0
 28 54  1  0  0  0  0
 28 55  1  0  0  0  0
 29 56  1  0  0  0  0
 29 57  1  0  0  0  0
 30 58  1  0  0  0  0
 30 59  1  0  0  0  0
 31 60  1  0  0  0  0
 31 61  1  0  0  0  0
 32 62  1  0  0  0  0
 32 63  1  0  0  0  0
M  END
$$$$
﻿
          05302416083D 1   1.00000     0.00000     0
            
 63 66  0  0  0  0            999 V2000
   -1.8243   -3.9422    1.0200 C   0  0  0  0  0  0  0  0  0  0  0  0
   -1.0866   -2.6133    0.9990 C   0  0  0  0  0  0  0  0  0  0  0  0
    0.0604   -2.4754    1.7746 C   0  0  0  0  0  0  0  0  0  0  0  0
    0.7582   -1.2717    1.7770 C   0  0  0  0  0  0  0  0  0  0  0  0
    0.2998   -0.2127    1.0000 C   0  0  0  0  0  0  0  0  0  0  0  0
    1.0000    1.0000    1.0000 N   0  0  0  0  0  0  0  0  0  0  0  0
    2.3700    1.0000    1.0000 C   0  0  0  0  0  0  0  0  0  0  0  0
    2.9700   -0.0392    1.0000 O   0  0  0  0  0  0  0  0  0  0  0  0
    3.0550    2.1865    1.0000 N   0  0  0  0  0  0  0  0  0  0  0  0
    2.3548    3.3992    1.0000 C   0  0  0  0  0  0  0  0  0  0  0  0
    2.6753    4.4721    0.3170 N   0  0  0  0  0  0  0  0  0  0  0  0
    1.7898    5.4103    0.5622 N   0  0  0  0  0  0  0  0  0  0  0  0
    0.8496    4.9571    1.4369 C   0  0  0  0  0  0  0  0  0  0  0  0
    1.1811    3.6709    1.7344 C   0  0  0  0  0  0  0  0  0  0  0  0
    1.8113    6.7629   -0.0214 C   0  0  0  0  0  0  0  0  0  0  0  0
    3.0926    7.4907    0.3515 C   0  0  0  0  0  0  0  0  0  0  0  0
    3.1084    8.8607   -0.3077 C   0  0  0  0  0  0  0  0  0  0  0  0
    3.0045    8.7348   -1.7193 O   0  0  0  0  0  0  0  0  0  0  0  0
    1.8142    8.0707   -2.1219 C   0  0  0  0  0  0  0  0  0  0  0  0
    1.7412    6.6683   -1.5378 C   0  0  0  0  0  0  0  0  0  0  0  0
   -0.8455   -0.3395    0.2209 C   0  0  0  0  0  0  0  0  0  0  0  0
   -1.5361   -1.5470    0.2255 C   0  0  0  0  0  0  0  0  0  0  0  0
   -2.9664   -1.6851   -0.7560 S   0  0  0  0  0  0  0  0  0  0  0  0
   -3.0689   -0.5371   -1.6193 O   0  0  0  0  0  0  0  0  0  0  0  0
   -2.8870   -2.8807   -1.5546 O   0  0  0  0  0  0  0  0  0  0  0  0
   -4.3855   -1.7665    0.2831 N   0  0  0  0  0  0  0  0  0  0  0  0
   -4.5032   -0.4970    1.0219 C   0  0  0  0  0  0  0  0  0  0  0  0
   -5.6678   -0.4681    2.0040 C   0  0  0  0  0  0  0  0  0  0  0  0
   -5.4062   -1.2998    3.2534 C   0  0  0  0  0  0  0  0  0  0  0  0
   -5.8957   -2.7371    3.1480 C   0  0  0  0  0  0  0  0  0  0  0  0
   -5.6723   -3.3383    1.7676 C   0  0  0  0  0  0  0  0  0  0  0  0
   -4.3348   -2.9776    1.1238 C   0  0  0  0  0  0  0  0  0  0  0  0
   -1.3504   -4.5769    1.6304 H   0  0  0  0  0  0  0  0  0  0  0  0
   -2.7584   -3.7998    1.3472 H   0  0  0  0  0  0  0  0  0  0  0  0
   -1.8493   -4.3242    0.0962 H   0  0  0  0  0  0  0  0  0  0  0  0
    0.3833   -3.2416    2.3302 H   0  0  0  0  0  0  0  0  0  0  0  0
    1.5828   -1.1685    2.3331 H   0  0  0  0  0  0  0  0  0  0  0  0
    0.5000    1.8660    1.0000 H   0  0  0  0  0  0  0  0  0  0  0  0
    4.0550    2.1865    1.0000 H   0  0  0  0  0  0  0  0  0  0  0  0
    0.0676    5.4696    1.7916 H   0  0  0  0  0  0  0  0  0  0  0  0
    0.6939    3.0480    2.3465 H   0  0  0  0  0  0  0  0  0  0  0  0
    1.0254    7.2818    0.3150 H   0  0  0  0  0  0  0  0  0  0  0  0
    3.8803    6.9607    0.0375 H   0  0  0  0  0  0  0  0  0  0  0  0
    3.1377    7.5983    1.3447 H   0  0  0  0  0  0  0  0  0  0  0  0
    2.3370    9.3985    0.0324 H   0  0  0  0  0  0  0  0  0  0  0  0
    3.9644    9.3252   -0.0808 H   0  0  0  0  0  0  0  0  0  0  0  0
    1.7966    8.0096   -3.1199 H   0  0  0  0  0  0  0  0  0  0  0  0
    1.0246    8.5969   -1.8062 H   0  0  0  0  0  0  0  0  0  0  0  0
    0.8807    6.2364   -1.8079 H   0  0  0  0  0  0  0  0  0  0  0  0
    2.5083    6.1233   -1.8761 H   0  0  0  0  0  0  0  0  0  0  0  0
   -1.1680    0.4268   -0.3348 H   0  0  0  0  0  0  0  0  0  0  0  0
   -4.6287    0.2429    0.3609 H   0  0  0  0  0  0  0  0  0  0  0  0
   -3.6559   -0.3483    1.5318 H   0  0  0  0  0  0  0  0  0  0  0  0
   -6.4812   -0.8266    1.5459 H   0  0  0  0  0  0  0  0  0  0  0  0
   -5.8305    0.4795    2.2790 H   0  0  0  0  0  0  0  0  0  0  0  0
   -5.8703   -0.8644    4.0248 H   0  0  0  0  0  0  0  0  0  0  0  0
   -4.4206   -1.3139    3.4222 H   0  0  0  0  0  0  0  0  0  0  0  0
   -5.4055   -3.2913    3.8207 H   0  0  0  0  0  0  0  0  0  0  0  0
   -6.8749   -2.7565    3.3499 H   0  0  0  0  0  0  0  0  0  0  0  0
   -5.7200   -4.3338    1.8498 H   0  0  0  0  0  0  0  0  0  0  0  0
   -6.4041   -3.0181    1.1660 H   0  0  0  0  0  0  0  0  0  0  0  0
   -3.6649   -2.8284    1.8512 H   0  0  0  0  0  0  0  0  0  0  0  0
   -4.0423   -3.7451    0.5535 H   0  0  0  0  0  0  0  0  0  0  0  0
  1  2  1  0  0  0  0
  2  3  2  0  0  0  0
  2 22  1  0  0  0  0
  3  4  1  0  0  0  0
  4  5  2  0  0  0  0
  5  6  1  0  0  0  0
  5 21  1  0  0  0  0
  6  7  1  0  0  0  0
  7  8  2  0  0  0  0
  7  9  1  0  0  0  0
  9 10  1  0  0  0  0
 10 11  2  0  0  0  0
 10 14  1  0  0  0  0
 11 12  1  0  0  0  0
 12 13  1  0  0  0  0
 12 15  1  0  0  0  0
 13 14  2  0  0  0  0
 15 16  1  0  0  0  0
 15 20  1  0  0  0  0
 16 17  1  0  0  0  0
 17 18  1  0  0  0  0
 18 19  1  0  0  0  0
 19 20  1  0  0  0  0
 21 22  2  0  0  0  0
 22 23  1  0  0  0  0
 23 24  2  0  0  0  0
 23 25  2  0  0  0  0
 23 26  1  0  0  0  0
 26 27  1  0  0  0  0
 26 32  1  0  0  0  0
 27 28  1  0  0  0  0
 28 29  1  0  0  0  0
 29 30  1  0  0  0  0
 30 31  1  0  0  0  0
 31 32  1  0  0  0  0
  1 33  1  0  0  0  0
  1 34  1  0  0  0  0
  1 35  1  0  0  0  0
  3 36  1  0  0  0  0
  4 37  1  0  0  0  0
  6 38  1  0  0  0  0
  9 39  1  0  0  0  0
 13 40  1  0  0  0  0
 14 41  1  0  0  0  0
 15 42  1  0  0  0  0
 16 43  1  0  0  0  0
 16 44  1  0  0  0  0
 17 45  1  0  0  0  0
 17 46  1  0  0  0  0
 19 47  1  0  0  0  0
 19 48  1  0  0  0  0
 20 49  1  0  0  0  0
 20 50  1  0  0  0  0
 21 51  1  0  0  0  0
 27 52  1  0  0  0  0
 27 53  1  0  0  0  0
 28 54  1  0  0  0  0
 28 55  1  0  0  0  0
 29 56  1  0  0  0  0
 29 57  1  0  0  0  0
 30 58  1  0  0  0  0
 30 59  1  0  0  0  0
 31 60  1  0  0  0  0
 31 61  1  0  0  0  0
 32 62  1  0  0  0  0
 32 63  1  0  0  0  0
M  END
$$$$
﻿
          05302416083D 1   1.00000     0.00000     0
            
 63 66  0  0  0  0            999 V2000
   -1.8243   -3.9422    1.0200 C   0  0  0  0  0  0  0  0  0  0  0  0
   -1.0866   -2.6133    0.9990 C   0  0  0  0  0  0  0  0  0  0  0  0
    0.0604   -2.4754    1.7746 C   0  0  0  0  0  0  0  0  0  0  0  0
    0.7582   -1.2717    1.7770 C   0  0  0  0  0  0  0  0  0  0  0  0
    0.2998   -0.2127    1.0000 C   0  0  0  0  0  0  0  0  0  0  0  0
    1.0000    1.0000    1.0000 N   0  0  0  0  0  0  0  0  0  0  0  0
    2.3700    1.0000    1.0000 C   0  0  0  0  0  0  0  0  0  0  0  0
    2.9700   -0.0392    1.0000 O   0  0  0  0  0  0  0  0  0  0  0  0
    3.0550    2.1865    1.0000 N   0  0  0  0  0  0  0  0  0  0  0  0
    2.3548    3.3992    1.0000 C   0  0  0  0  0  0  0  0  0  0  0  0
    2.6753    4.4721    0.3170 N   0  0  0  0  0  0  0  0  0  0  0  0
    1.7898    5.4103    0.5622 N   0  0  0  0  0  0  0  0  0  0  0  0
    0.8496    4.9571    1.4369 C   0  0  0  0  0  0  0  0  0  0  0  0
    1.1811    3.6709    1.7344 C   0  0  0  0  0  0  0  0  0  0  0  0
    1.8113    6.7629   -0.0214 C   0  0  0  0  0  0  0  0  0  0  0  0
    3.0926    7.4907    0.3515 C   0  0  0  0  0  0  0  0  0  0  0  0
    3.1084    8.8607   -0.3077 C   0  0  0  0  0  0  0  0  0  0  0  0
    3.0045    8.7348   -1.7193 O   0  0  0  0  0  0  0  0  0  0  0  0
    1.8142    8.0707   -2.1219 C   0  0  0  0  0  0  0  0  0  0  0  0
    1.7412    6.6683   -1.5378 C   0  0  0  0  0  0  0  0  0  0  0  0
   -0.8455   -0.3395    0.2209 C   0  0  0  0  0  0  0  0  0  0  0  0
   -1.5361   -1.5470    0.2255 C   0  0  0  0  0  0  0  0  0  0  0  0
   -2.9664   -1.6851   -0.7560 S   0  0  0  0  0  0  0  0  0  0  0  0
   -2.7881   -2.7414   -1.7183 O   0  0  0  0  0  0  0  0  0  0  0  0
   -4.0971   -1.9862    0.0833 O   0  0  0  0  0  0  0  0  0  0  0  0
   -3.2491   -0.1651   -1.5985 N   0  0  0  0  0  0  0  0  0  0  0  0
   -2.1271    0.0785   -2.5221 C   0  0  0  0  0  0  0  0  0  0  0  0
   -2.2291    1.4017   -3.2707 C   0  0  0  0  0  0  0  0  0  0  0  0
   -1.9108    2.6035   -2.3900 C   0  0  0  0  0  0  0  0  0  0  0  0
   -3.1325    3.2117   -1.7162 C   0  0  0  0  0  0  0  0  0  0  0  0
   -4.1335    2.1643   -1.2494 C   0  0  0  0  0  0  0  0  0  0  0  0
   -3.5080    0.9163   -0.6292 C   0  0  0  0  0  0  0  0  0  0  0  0
   -1.3504   -4.5769    1.6304 H   0  0  0  0  0  0  0  0  0  0  0  0
   -2.7584   -3.7998    1.3472 H   0  0  0  0  0  0  0  0  0  0  0  0
   -1.8493   -4.3242    0.0962 H   0  0  0  0  0  0  0  0  0  0  0  0
    0.3833   -3.2416    2.3302 H   0  0  0  0  0  0  0  0  0  0  0  0
    1.5828   -1.1685    2.3331 H   0  0  0  0  0  0  0  0  0  0  0  0
    0.5000    1.8660    1.0000 H   0  0  0  0  0  0  0  0  0  0  0  0
    4.0550    2.1865    1.0000 H   0  0  0  0  0  0  0  0  0  0  0  0
    0.0676    5.4696    1.7916 H   0  0  0  0  0  0  0  0  0  0  0  0
    0.6939    3.0480    2.3465 H   0  0  0  0  0  0  0  0  0  0  0  0
    1.0254    7.2818    0.3150 H   0  0  0  0  0  0  0  0  0  0  0  0
    3.8803    6.9607    0.0375 H   0  0  0  0  0  0  0  0  0  0  0  0
    3.1377    7.5983    1.3447 H   0  0  0  0  0  0  0  0  0  0  0  0
    2.3370    9.3985    0.0324 H   0  0  0  0  0  0  0  0  0  0  0  0
    3.9644    9.3252   -0.0808 H   0  0  0  0  0  0  0  0  0  0  0  0
    1.7966    8.0096   -3.1199 H   0  0  0  0  0  0  0  0  0  0  0  0
    1.0246    8.5969   -1.8062 H   0  0  0  0  0  0  0  0  0  0  0  0
    0.8807    6.2364   -1.8079 H   0  0  0  0  0  0  0  0  0  0  0  0
    2.5083    6.1233   -1.8761 H   0  0  0  0  0  0  0  0  0  0  0  0
   -1.1680    0.4268   -0.3348 H   0  0  0  0  0  0  0  0  0  0  0  0
   -2.1029   -0.6630   -3.1926 H   0  0  0  0  0  0  0  0  0  0  0  0
   -1.2776    0.0785   -1.9945 H   0  0  0  0  0  0  0  0  0  0  0  0
   -3.1606    1.4998   -3.6210 H   0  0  0  0  0  0  0  0  0  0  0  0
   -1.5852    1.3866   -4.0357 H   0  0  0  0  0  0  0  0  0  0  0  0
   -1.4817    3.3058   -2.9580 H   0  0  0  0  0  0  0  0  0  0  0  0
   -1.2706    2.3126   -1.6790 H   0  0  0  0  0  0  0  0  0  0  0  0
   -2.8297    3.7397   -0.9228 H   0  0  0  0  0  0  0  0  0  0  0  0
   -3.5868    3.8195   -2.3675 H   0  0  0  0  0  0  0  0  0  0  0  0
   -4.7302    2.5859   -0.5666 H   0  0  0  0  0  0  0  0  0  0  0  0
   -4.6784    1.8804   -2.0384 H   0  0  0  0  0  0  0  0  0  0  0  0
   -2.6394    1.1757   -0.2070 H   0  0  0  0  0  0  0  0  0  0  0  0
   -4.1291    0.5681    0.0730 H   0  0  0  0  0  0  0  0  0  0  0  0
  1  2  1  0  0  0  0
  2  3  2  0  0  0  0
  2 22  1  0  0  0  0
  3  4  1  0  0  0  0
  4  5  2  0  0  0  0
  5  6  1  0  0  0  0
  5 21  1  0  0  0  0
  6  7  1  0  0  0  0
  7  8  2  0  0  0  0
  7  9  1  0  0  0  0
  9 10  1  0  0  0  0
 10 11  2  0  0  0  0
 10 14  1  0  0  0  0
 11 12  1  0  0  0  0
 12 13  1  0  0  0  0
 12 15  1  0  0  0  0
 13 14  2  0  0  0  0
 15 16  1  0  0  0  0
 15 20  1  0  0  0  0
 16 17  1  0  0  0  0
 17 18  1  0  0  0  0
 18 19  1  0  0  0  0
 19 20  1  0  0  0  0
 21 22  2  0  0  0  0
 22 23  1  0  0  0  0
 23 24  2  0  0  0  0
 23 25  2  0  0  0  0
 23 26  1  0  0  0  0
 26 27  1  0  0  0  0
 26 32  1  0  0  0  0
 27 28  1  0  0  0  0
 28 29  1  0  0  0  0
 29 30  1  0  0  0  0
 30 31  1  0  0  0  0
 31 32  1  0  0  0  0
  1 33  1  0  0  0  0
  1 34  1  0  0  0  0
  1 35  1  0  0  0  0
  3 36  1  0  0  0  0
  4 37  1  0  0  0  0
  6 38  1  0  0  0  0
  9 39  1  0  0  0  0
 13 40  1  0  0  0  0
 14 41  1  0  0  0  0
 15 42  1  0  0  0  0
 16 43  1  0  0  0  0
 16 44  1  0  0  0  0
 17 45  1  0  0  0  0
 17 46  1  0  0  0  0
 19 47  1  0  0  0  0
 19 48  1  0  0  0  0
 20 49  1  0  0  0  0
 20 50  1  0  0  0  0
 21 51  1  0  0  0  0
 27 52  1  0  0  0  0
 27 53  1  0  0  0  0
 28 54  1  0  0  0  0
 28 55  1  0  0  0  0
 29 56  1  0  0  0  0
 29 57  1  0  0  0  0
 30 58  1  0  0  0  0
 30 59  1  0  0  0  0
 31 60  1  0  0  0  0
 31 61  1  0  0  0  0
 32 62  1  0  0  0  0
 32 63  1  0  0  0  0
M  END
$$$$
﻿
          05302416083D 1   1.00000     0.00000     0
            
 63 66  0  0  0  0            999 V2000
   -1.8328   -3.9373    0.9717 C   0  0  0  0  0  0  0  0  0  0  0  0
   -1.0870   -2.6130    1.0006 C   0  0  0  0  0  0  0  0  0  0  0  0
   -0.2182   -2.3146   -0.0445 C   0  0  0  0  0  0  0  0  0  0  0  0
    0.4792   -1.1107   -0.0473 C   0  0  0  0  0  0  0  0  0  0  0  0
    0.2998   -0.2127    1.0000 C   0  0  0  0  0  0  0  0  0  0  0  0
    1.0000    1.0000    1.0000 N   0  0  0  0  0  0  0  0  0  0  0  0
    2.3700    1.0000    1.0000 C   0  0  0  0  0  0  0  0  0  0  0  0
    2.9700   -0.0392    1.0000 O   0  0  0  0  0  0  0  0  0  0  0  0
    3.0550    2.1865    1.0000 N   0  0  0  0  0  0  0  0  0  0  0  0
    2.3548    3.3992    1.0000 C   0  0  0  0  0  0  0  0  0  0  0  0
    2.6753    4.4721    0.3170 N   0  0  0  0  0  0  0  0  0  0  0  0
    1.7898    5.4103    0.5622 N   0  0  0  0  0  0  0  0  0  0  0  0
    0.8496    4.9571    1.4369 C   0  0  0  0  0  0  0  0  0  0  0  0
    1.1811    3.6709    1.7344 C   0  0  0  0  0  0  0  0  0  0  0  0
    1.8113    6.7629   -0.0214 C   0  0  0  0  0  0  0  0  0  0  0  0
    1.0318    6.7998   -1.3258 C   0  0  0  0  0  0  0  0  0  0  0  0
    1.0284    8.2175   -1.8751 C   0  0  0  0  0  0  0  0  0  0  0  0
    0.4575    9.1148   -0.9326 O   0  0  0  0  0  0  0  0  0  0  0  0
    1.1592    9.1276    0.3032 C   0  0  0  0  0  0  0  0  0  0  0  0
    1.1713    7.7483    0.9442 C   0  0  0  0  0  0  0  0  0  0  0  0
   -0.5662   -0.5007    2.0497 C   0  0  0  0  0  0  0  0  0  0  0  0
   -1.2587   -1.7071    2.0433 C   0  0  0  0  0  0  0  0  0  0  0  0
   -2.3372   -2.0484    3.3656 S   0  0  0  0  0  0  0  0  0  0  0  0
   -2.0565   -3.3607    3.8875 O   0  0  0  0  0  0  0  0  0  0  0  0
   -2.1488   -1.0685    4.4038 O   0  0  0  0  0  0  0  0  0  0  0  0
   -4.0012   -1.9871    2.7961 N   0  0  0  0  0  0  0  0  0  0  0  0
   -4.1242   -2.6832    1.5080 C   0  0  0  0  0  0  0  0  0  0  0  0
   -5.4104   -2.3724    0.7477 C   0  0  0  0  0  0  0  0  0  0  0  0
   -6.5666   -3.3167    1.0456 C   0  0  0  0  0  0  0  0  0  0  0  0
   -6.6934   -3.7016    2.5144 C   0  0  0  0  0  0  0  0  0  0  0  0
   -6.3508   -2.5656    3.4684 C   0  0  0  0  0  0  0  0  0  0  0  0
   -4.8768   -2.5207    3.8557 C   0  0  0  0  0  0  0  0  0  0  0  0
   -1.5781   -4.4455    0.1490 H   0  0  0  0  0  0  0  0  0  0  0  0
   -1.5932   -4.4725    1.7817 H   0  0  0  0  0  0  0  0  0  0  0  0
   -2.8179   -3.7650    0.9654 H   0  0  0  0  0  0  0  0  0  0  0  0
   -0.0950   -2.9655   -0.7936 H   0  0  0  0  0  0  0  0  0  0  0  0
    1.1047   -0.8925   -0.7964 H   0  0  0  0  0  0  0  0  0  0  0  0
    0.5000    1.8660    1.0000 H   0  0  0  0  0  0  0  0  0  0  0  0
    4.0550    2.1865    1.0000 H   0  0  0  0  0  0  0  0  0  0  0  0
    0.0676    5.4696    1.7916 H   0  0  0  0  0  0  0  0  0  0  0  0
    0.6939    3.0480    2.3465 H   0  0  0  0  0  0  0  0  0  0  0  0
    2.7582    7.0348   -0.1933 H   0  0  0  0  0  0  0  0  0  0  0  0
    0.0909    6.5043   -1.1601 H   0  0  0  0  0  0  0  0  0  0  0  0
    1.4619    6.1867   -1.9885 H   0  0  0  0  0  0  0  0  0  0  0  0
    1.9686    8.4978   -2.0686 H   0  0  0  0  0  0  0  0  0  0  0  0
    0.4927    8.2422   -2.7192 H   0  0  0  0  0  0  0  0  0  0  0  0
    0.7135    9.7720    0.9246 H   0  0  0  0  0  0  0  0  0  0  0  0
    2.1016    9.4196    0.1401 H   0  0  0  0  0  0  0  0  0  0  0  0
    1.6987    7.7772    1.7933 H   0  0  0  0  0  0  0  0  0  0  0  0
    0.2340    7.4625    1.1436 H   0  0  0  0  0  0  0  0  0  0  0  0
   -0.6894    0.1505    2.7985 H   0  0  0  0  0  0  0  0  0  0  0  0
   -4.0918   -3.6679    1.6795 H   0  0  0  0  0  0  0  0  0  0  0  0
   -3.3492   -2.4192    0.9338 H   0  0  0  0  0  0  0  0  0  0  0  0
   -5.2132   -2.4199   -0.2315 H   0  0  0  0  0  0  0  0  0  0  0  0
   -5.6966   -1.4441    0.9854 H   0  0  0  0  0  0  0  0  0  0  0  0
   -6.4350   -4.1523    0.5122 H   0  0  0  0  0  0  0  0  0  0  0  0
   -7.4164   -2.8715    0.7632 H   0  0  0  0  0  0  0  0  0  0  0  0
   -7.6361   -3.9873    2.6871 H   0  0  0  0  0  0  0  0  0  0  0  0
   -6.0748   -4.4660    2.6964 H   0  0  0  0  0  0  0  0  0  0  0  0
   -6.5889   -1.6998    3.0282 H   0  0  0  0  0  0  0  0  0  0  0  0
   -6.8936   -2.6767    4.3009 H   0  0  0  0  0  0  0  0  0  0  0  0
   -4.7807   -1.9422    4.6657 H   0  0  0  0  0  0  0  0  0  0  0  0
   -4.5790   -3.4503    4.0728 H   0  0  0  0  0  0  0  0  0  0  0  0
  1  2  1  0  0  0  0
  2  3  2  0  0  0  0
  2 22  1  0  0  0  0
  3  4  1  0  0  0  0
  4  5  2  0  0  0  0
  5  6  1  0  0  0  0
  5 21  1  0  0  0  0
  6  7  1  0  0  0  0
  7  8  2  0  0  0  0
  7  9  1  0  0  0  0
  9 10  1  0  0  0  0
 10 11  2  0  0  0  0
 10 14  1  0  0  0  0
 11 12  1  0  0  0  0
 12 13  1  0  0  0  0
 12 15  1  0  0  0  0
 13 14  2  0  0  0  0
 15 16  1  0  0  0  0
 15 20  1  0  0  0  0
 16 17  1  0  0  0  0
 17 18  1  0  0  0  0
 18 19  1  0  0  0  0
 19 20  1  0  0  0  0
 21 22  2  0  0  0  0
 22 23  1  0  0  0  0
 23 24  2  0  0  0  0
 23 25  2  0  0  0  0
 23 26  1  0  0  0  0
 26 27  1  0  0  0  0
 26 32  1  0  0  0  0
 27 28  1  0  0  0  0
 28 29  1  0  0  0  0
 29 30  1  0  0  0  0
 30 31  1  0  0  0  0
 31 32  1  0  0  0  0
  1 33  1  0  0  0  0
  1 34  1  0  0  0  0
  1 35  1  0  0  0  0
  3 36  1  0  0  0  0
  4 37  1  0  0  0  0
  6 38  1  0  0  0  0
  9 39  1  0  0  0  0
 13 40  1  0  0  0  0
 14 41  1  0  0  0  0
 15 42  1  0  0  0  0
 16 43  1  0  0  0  0
 16 44  1  0  0  0  0
 17 45  1  0  0  0  0
 17 46  1  0  0  0  0
 19 47  1  0  0  0  0
 19 48  1  0  0  0  0
 20 49  1  0  0  0  0
 20 50  1  0  0  0  0
 21 51  1  0  0  0  0
 27 52  1  0  0  0  0
 27 53  1  0  0  0  0
 28 54  1  0  0  0  0
 28 55  1  0  0  0  0
 29 56  1  0  0  0  0
 29 57  1  0  0  0  0
 30 58  1  0  0  0  0
 30 59  1  0  0  0  0
 31 60  1  0  0  0  0
 31 61  1  0  0  0  0
 32 62  1  0  0  0  0
 32 63  1  0  0  0  0
M  END
$$$$
﻿
          05302416083D 1   1.00000     0.00000     0
            
 63 66  0  0  0  0            999 V2000
   -1.8328   -3.9373    0.9717 C   0  0  0  0  0  0  0  0  0  0  0  0
   -1.0870   -2.6130    1.0006 C   0  0  0  0  0  0  0  0  0  0  0  0
   -0.2182   -2.3146   -0.0445 C   0  0  0  0  0  0  0  0  0  0  0  0
    0.4792   -1.1107   -0.0473 C   0  0  0  0  0  0  0  0  0  0  0  0
    0.2998   -0.2127    1.0000 C   0  0  0  0  0  0  0  0  0  0  0  0
    1.0000    1.0000    1.0000 N   0  0  0  0  0  0  0  0  0  0  0  0
    2.3700    1.0000    1.0000 C   0  0  0  0  0  0  0  0  0  0  0  0
    2.9700   -0.0392    1.0000 O   0  0  0  0  0  0  0  0  0  0  0  0
    3.0550    2.1865    1.0000 N   0  0  0  0  0  0  0  0  0  0  0  0
    2.3548    3.3992    1.0000 C   0  0  0  0  0  0  0  0  0  0  0  0
    2.6753    4.4721    0.3170 N   0  0  0  0  0  0  0  0  0  0  0  0
    1.7898    5.4103    0.5622 N   0  0  0  0  0  0  0  0  0  0  0  0
    0.8496    4.9571    1.4369 C   0  0  0  0  0  0  0  0  0  0  0  0
    1.1811    3.6709    1.7344 C   0  0  0  0  0  0  0  0  0  0  0  0
    1.8113    6.7629   -0.0214 C   0  0  0  0  0  0  0  0  0  0  0  0
    0.6363    7.5858    0.4812 C   0  0  0  0  0  0  0  0  0  0  0  0
    0.7159    8.9899   -0.0967 C   0  0  0  0  0  0  0  0  0  0  0  0
    1.9431    9.6081    0.2654 O   0  0  0  0  0  0  0  0  0  0  0  0
    3.0759    8.8828   -0.1934 C   0  0  0  0  0  0  0  0  0  0  0  0
    3.0957    7.4731    0.3775 C   0  0  0  0  0  0  0  0  0  0  0  0
   -0.5662   -0.5007    2.0497 C   0  0  0  0  0  0  0  0  0  0  0  0
   -1.2587   -1.7071    2.0433 C   0  0  0  0  0  0  0  0  0  0  0  0
   -2.3372   -2.0484    3.3656 S   0  0  0  0  0  0  0  0  0  0  0  0
   -2.1488   -1.0685    4.4038 O   0  0  0  0  0  0  0  0  0  0  0  0
   -3.6988   -1.9982    2.8996 O   0  0  0  0  0  0  0  0  0  0  0  0
   -1.9942   -3.6523    4.0035 N   0  0  0  0  0  0  0  0  0  0  0  0
   -0.6389   -3.6956    4.5697 C   0  0  0  0  0  0  0  0  0  0  0  0
   -0.1008   -5.1048    4.8007 C   0  0  0  0  0  0  0  0  0  0  0  0
   -0.3894   -5.6748    6.1824 C   0  0  0  0  0  0  0  0  0  0  0  0
   -1.7852   -5.3602    6.7065 C   0  0  0  0  0  0  0  0  0  0  0  0
   -2.8539   -5.3693    5.6220 C   0  0  0  0  0  0  0  0  0  0  0  0
   -3.0583   -4.0118    4.9587 C   0  0  0  0  0  0  0  0  0  0  0  0
   -1.5781   -4.4455    0.1490 H   0  0  0  0  0  0  0  0  0  0  0  0
   -1.5932   -4.4725    1.7817 H   0  0  0  0  0  0  0  0  0  0  0  0
   -2.8179   -3.7650    0.9654 H   0  0  0  0  0  0  0  0  0  0  0  0
   -0.0950   -2.9655   -0.7936 H   0  0  0  0  0  0  0  0  0  0  0  0
    1.1047   -0.8925   -0.7964 H   0  0  0  0  0  0  0  0  0  0  0  0
    0.5000    1.8660    1.0000 H   0  0  0  0  0  0  0  0  0  0  0  0
    4.0550    2.1865    1.0000 H   0  0  0  0  0  0  0  0  0  0  0  0
    0.0676    5.4696    1.7916 H   0  0  0  0  0  0  0  0  0  0  0  0
    0.6939    3.0480    2.3465 H   0  0  0  0  0  0  0  0  0  0  0  0
    1.7660    6.6947   -1.0181 H   0  0  0  0  0  0  0  0  0  0  0  0
    0.6662    7.6342    1.4796 H   0  0  0  0  0  0  0  0  0  0  0  0
   -0.2192    7.1552    0.1938 H   0  0  0  0  0  0  0  0  0  0  0  0
    0.6543    8.9395   -1.0935 H   0  0  0  0  0  0  0  0  0  0  0  0
   -0.0442    9.5349    0.2571 H   0  0  0  0  0  0  0  0  0  0  0  0
    3.9066    9.3614    0.0910 H   0  0  0  0  0  0  0  0  0  0  0  0
    3.0468    8.8299   -1.1916 H   0  0  0  0  0  0  0  0  0  0  0  0
    3.8823    6.9744    0.0134 H   0  0  0  0  0  0  0  0  0  0  0  0
    3.1603    7.5155    1.3745 H   0  0  0  0  0  0  0  0  0  0  0  0
   -0.6894    0.1505    2.7985 H   0  0  0  0  0  0  0  0  0  0  0  0
   -0.6506   -3.2168    5.4475 H   0  0  0  0  0  0  0  0  0  0  0  0
   -0.0213   -3.2235    3.9407 H   0  0  0  0  0  0  0  0  0  0  0  0
    0.8907   -5.0850    4.6724 H   0  0  0  0  0  0  0  0  0  0  0  0
   -0.5129   -5.7114    4.1208 H   0  0  0  0  0  0  0  0  0  0  0  0
    0.2790   -5.2977    6.8235 H   0  0  0  0  0  0  0  0  0  0  0  0
   -0.2866   -6.6686    6.1399 H   0  0  0  0  0  0  0  0  0  0  0  0
   -2.0267   -6.0437    7.3953 H   0  0  0  0  0  0  0  0  0  0  0  0
   -1.7688   -4.4535    7.1279 H   0  0  0  0  0  0  0  0  0  0  0  0
   -2.5859   -6.0280    4.9190 H   0  0  0  0  0  0  0  0  0  0  0  0
   -3.7197   -5.6543    6.0332 H   0  0  0  0  0  0  0  0  0  0  0  0
   -3.9299   -4.0279    4.4688 H   0  0  0  0  0  0  0  0  0  0  0  0
   -3.0904   -3.3129    5.6732 H   0  0  0  0  0  0  0  0  0  0  0  0
  1  2  1  0  0  0  0
  2  3  2  0  0  0  0
  2 22  1  0  0  0  0
  3  4  1  0  0  0  0
  4  5  2  0  0  0  0
  5  6  1  0  0  0  0
  5 21  1  0  0  0  0
  6  7  1  0  0  0  0
  7  8  2  0  0  0  0
  7  9  1  0  0  0  0
  9 10  1  0  0  0  0
 10 11  2  0  0  0  0
 10 14  1  0  0  0  0
 11 12  1  0  0  0  0
 12 13  1  0  0  0  0
 12 15  1  0  0  0  0
 13 14  2  0  0  0  0
 15 16  1  0  0  0  0
 15 20  1  0  0  0  0
 16 17  1  0  0  0  0
 17 18  1  0  0  0  0
 18 19  1  0  0  0  0
 19 20  1  0  0  0  0
 21 22  2  0  0  0  0
 22 23  1  0  0  0  0
 23 24  2  0  0  0  0
 23 25  2  0  0  0  0
 23 26  1  0  0  0  0
 26 27  1  0  0  0  0
 26 32  1  0  0  0  0
 27 28  1  0  0  0  0
 28 29  1  0  0  0  0
 29 30  1  0  0  0  0
 30 31  1  0  0  0  0
 31 32  1  0  0  0  0
  1 33  1  0  0  0  0
  1 34  1  0  0  0  0
  1 35  1  0  0  0  0
  3 36  1  0  0  0  0
  4 37  1  0  0  0  0
  6 38  1  0  0  0  0
  9 39  1  0  0  0  0
 13 40  1  0  0  0  0
 14 41  1  0  0  0  0
 15 42  1  0  0  0  0
 16 43  1  0  0  0  0
 16 44  1  0  0  0  0
 17 45  1  0  0  0  0
 17 46  1  0  0  0  0
 19 47  1  0  0  0  0
 19 48  1  0  0  0  0
 20 49  1  0  0  0  0
 20 50  1  0  0  0  0
 21 51  1  0  0  0  0
 27 52  1  0  0  0  0
 27 53  1  0  0  0  0
 28 54  1  0  0  0  0
 28 55  1  0  0  0  0
 29 56  1  0  0  0  0
 29 57  1  0  0  0  0
 30 58  1  0  0  0  0
 30 59  1  0  0  0  0
 31 60  1  0  0  0  0
 31 61  1  0  0  0  0
 32 62  1  0  0  0  0
 32 63  1  0  0  0  0
M  END
$$$$
﻿
          05302416083D 1   1.00000     0.00000     0
            
 63 66  0  0  0  0            999 V2000
   -1.8253   -3.9416    0.9787 C   0  0  0  0  0  0  0  0  0  0  0  0
   -1.0872   -2.6130    1.0003 C   0  0  0  0  0  0  0  0  0  0  0  0
    0.0597   -2.4751    0.2245 C   0  0  0  0  0  0  0  0  0  0  0  0
    0.7579   -1.2715    0.2226 C   0  0  0  0  0  0  0  0  0  0  0  0
    0.2998   -0.2127    1.0000 C   0  0  0  0  0  0  0  0  0  0  0  0
    1.0000    1.0000    1.0000 N   0  0  0  0  0  0  0  0  0  0  0  0
    2.3700    1.0000    1.0000 C   0  0  0  0  0  0  0  0  0  0  0  0
    2.9700   -0.0392    1.0000 O   0  0  0  0  0  0  0  0  0  0  0  0
    3.0550    2.1865    1.0000 N   0  0  0  0  0  0  0  0  0  0  0  0
    2.3548    3.3992    1.0000 C   0  0  0  0  0  0  0  0  0  0  0  0
    2.6753    4.4721    1.6830 N   0  0  0  0  0  0  0  0  0  0  0  0
    1.7937    5.4125    1.4323 N   0  0  0  0  0  0  0  0  0  0  0  0
    0.8525    4.9587    0.5592 C   0  0  0  0  0  0  0  0  0  0  0  0
    1.1849    3.6731    0.2603 C   0  0  0  0  0  0  0  0  0  0  0  0
    1.8157    6.7655    2.0154 C   0  0  0  0  0  0  0  0  0  0  0  0
    1.7244    6.7008    3.5313 C   0  0  0  0  0  0  0  0  0  0  0  0
    1.8024    8.1067    4.1049 C   0  0  0  0  0  0  0  0  0  0  0  0
    3.0118    8.7390    3.7091 O   0  0  0  0  0  0  0  0  0  0  0  0
    3.1403    8.8364    2.2971 C   0  0  0  0  0  0  0  0  0  0  0  0
    3.1162    7.4621    1.6457 C   0  0  0  0  0  0  0  0  0  0  0  0
   -0.8455   -0.3395    1.7791 C   0  0  0  0  0  0  0  0  0  0  0  0
   -1.5362   -1.5469    1.7743 C   0  0  0  0  0  0  0  0  0  0  0  0
   -2.9665   -1.6850    2.7558 S   0  0  0  0  0  0  0  0  0  0  0  0
   -4.0974   -1.9854    1.9164 O   0  0  0  0  0  0  0  0  0  0  0  0
   -2.7885   -2.7418    3.7176 O   0  0  0  0  0  0  0  0  0  0  0  0
   -3.2486   -0.1661    3.5986 N   0  0  0  0  0  0  0  0  0  0  0  0
   -3.5259    0.9072    2.6341 C   0  0  0  0  0  0  0  0  0  0  0  0
   -3.4094    2.3148    3.2119 C   0  0  0  0  0  0  0  0  0  0  0  0
   -4.7058    2.8766    3.7786 C   0  0  0  0  0  0  0  0  0  0  0  0
   -5.5355    1.8632    4.5572 C   0  0  0  0  0  0  0  0  0  0  0  0
   -4.6929    0.8848    5.3640 C   0  0  0  0  0  0  0  0  0  0  0  0
   -4.3182   -0.3753    4.5917 C   0  0  0  0  0  0  0  0  0  0  0  0
   -1.3516   -4.5762    0.3680 H   0  0  0  0  0  0  0  0  0  0  0  0
   -1.8504   -4.3240    1.9023 H   0  0  0  0  0  0  0  0  0  0  0  0
   -2.7594   -3.7988    0.6515 H   0  0  0  0  0  0  0  0  0  0  0  0
    0.3822   -3.2410   -0.3316 H   0  0  0  0  0  0  0  0  0  0  0  0
    1.5827   -1.1684   -0.3334 H   0  0  0  0  0  0  0  0  0  0  0  0
    0.5000    1.8660    1.0000 H   0  0  0  0  0  0  0  0  0  0  0  0
    4.0550    2.1865    1.0000 H   0  0  0  0  0  0  0  0  0  0  0  0
    0.0692    5.4705    0.2063 H   0  0  0  0  0  0  0  0  0  0  0  0
    0.7006    3.0518   -0.3557 H   0  0  0  0  0  0  0  0  0  0  0  0
    1.0443    7.2926    1.6590 H   0  0  0  0  0  0  0  0  0  0  0  0
    2.4814    6.1530    3.8876 H   0  0  0  0  0  0  0  0  0  0  0  0
    0.8560    6.2809    3.7952 H   0  0  0  0  0  0  0  0  0  0  0  0
    1.0266    8.6419    3.7708 H   0  0  0  0  0  0  0  0  0  0  0  0
    1.7682    8.0573    5.1031 H   0  0  0  0  0  0  0  0  0  0  0  0
    4.0066    9.2855    2.0787 H   0  0  0  0  0  0  0  0  0  0  0  0
    2.3825    9.3809    1.9375 H   0  0  0  0  0  0  0  0  0  0  0  0
    3.1739    7.5603    0.6522 H   0  0  0  0  0  0  0  0  0  0  0  0
    3.8914    6.9218    1.9728 H   0  0  0  0  0  0  0  0  0  0  0  0
   -1.1678    0.4268    2.3350 H   0  0  0  0  0  0  0  0  0  0  0  0
   -4.4568    0.7860    2.2895 H   0  0  0  0  0  0  0  0  0  0  0  0
   -2.8771    0.8242    1.8777 H   0  0  0  0  0  0  0  0  0  0  0  0
   -3.0964    2.9256    2.4846 H   0  0  0  0  0  0  0  0  0  0  0  0
   -2.7306    2.2954    3.9460 H   0  0  0  0  0  0  0  0  0  0  0  0
   -5.2589    3.2176    3.0186 H   0  0  0  0  0  0  0  0  0  0  0  0
   -4.4786    3.6335    4.3914 H   0  0  0  0  0  0  0  0  0  0  0  0
   -6.1340    2.3596    5.1860 H   0  0  0  0  0  0  0  0  0  0  0  0
   -6.0913    1.3432    3.9086 H   0  0  0  0  0  0  0  0  0  0  0  0
   -3.8512    1.3471    5.6430 H   0  0  0  0  0  0  0  0  0  0  0  0
   -5.2106    0.6160    6.1762 H   0  0  0  0  0  0  0  0  0  0  0  0
   -4.0110   -1.0667    5.2456 H   0  0  0  0  0  0  0  0  0  0  0  0
   -5.1320   -0.7065    4.1141 H   0  0  0  0  0  0  0  0  0  0  0  0
  1  2  1  0  0  0  0
  2  3  2  0  0  0  0
  2 22  1  0  0  0  0
  3  4  1  0  0  0  0
  4  5  2  0  0  0  0
  5  6  1  0  0  0  0
  5 21  1  0  0  0  0
  6  7  1  0  0  0  0
  7  8  2  0  0  0  0
  7  9  1  0  0  0  0
  9 10  1  0  0  0  0
 10 11  2  0  0  0  0
 10 14  1  0  0  0  0
 11 12  1  0  0  0  0
 12 13  1  0  0  0  0
 12 15  1  0  0  0  0
 13 14  2  0  0  0  0
 15 16  1  0  0  0  0
 15 20  1  0  0  0  0
 16 17  1  0  0  0  0
 17 18  1  0  0  0  0
 18 19  1  0  0  0  0
 19 20  1  0  0  0  0
 21 22  2  0  0  0  0
 22 23  1  0  0  0  0
 23 24  2  0  0  0  0
 23 25  2  0  0  0  0
 23 26  1  0  0  0  0
 26 27  1  0  0  0  0
 26 32  1  0  0  0  0
 27 28  1  0  0  0  0
 28 29  1  0  0  0  0
 29 30  1  0  0  0  0
 30 31  1  0  0  0  0
 31 32  1  0  0  0  0
  1 33  1  0  0  0  0
  1 34  1  0  0  0  0
  1 35  1  0  0  0  0
  3 36  1  0  0  0  0
  4 37  1  0  0  0  0
  6 38  1  0  0  0  0
  9 39  1  0  0  0  0
 13 40  1  0  0  0  0
 14 41  1  0  0  0  0
 15 42  1  0  0  0  0
 16 43  1  0  0  0  0
 16 44  1  0  0  0  0
 17 45  1  0  0  0  0
 17 46  1  0  0  0  0
 19 47  1  0  0  0  0
 19 48  1  0  0  0  0
 20 49  1  0  0  0  0
 20 50  1  0  0  0  0
 21 51  1  0  0  0  0
 27 52  1  0  0  0  0
 27 53  1  0  0  0  0
 28 54  1  0  0  0  0
 28 55  1  0  0  0  0
 29 56  1  0  0  0  0
 29 57  1  0  0  0  0
 30 58  1  0  0  0  0
 30 59  1  0  0  0  0
 31 60  1  0  0  0  0
 31 61  1  0  0  0  0
 32 62  1  0  0  0  0
 32 63  1  0  0  0  0
M  END
$$$$
﻿
          05302416083D 1   1.00000     0.00000     0
            
 63 66  0  0  0  0            999 V2000
   -1.8253   -3.9416    0.9787 C   0  0  0  0  0  0  0  0  0  0  0  0
   -1.0872   -2.6130    1.0003 C   0  0  0  0  0  0  0  0  0  0  0  0
    0.0597   -2.4751    0.2245 C   0  0  0  0  0  0  0  0  0  0  0  0
    0.7579   -1.2715    0.2226 C   0  0  0  0  0  0  0  0  0  0  0  0
    0.2998   -0.2127    1.0000 C   0  0  0  0  0  0  0  0  0  0  0  0
    1.0000    1.0000    1.0000 N   0  0  0  0  0  0  0  0  0  0  0  0
    2.3700    1.0000    1.0000 C   0  0  0  0  0  0  0  0  0  0  0  0
    2.9700   -0.0392    1.0000 O   0  0  0  0  0  0  0  0  0  0  0  0
    3.0550    2.1865    1.0000 N   0  0  0  0  0  0  0  0  0  0  0  0
    2.3548    3.3992    1.0000 C   0  0  0  0  0  0  0  0  0  0  0  0
    1.9703    4.0651   -0.0626 N   0  0  0  0  0  0  0  0  0  0  0  0
    1.3397    5.1504    0.3232 N   0  0  0  0  0  0  0  0  0  0  0  0
    1.3017    5.2181    1.6827 C   0  0  0  0  0  0  0  0  0  0  0  0
    1.9407    4.1095    2.1467 C   0  0  0  0  0  0  0  0  0  0  0  0
    0.7590    6.1554   -0.5844 C   0  0  0  0  0  0  0  0  0  0  0  0
    1.8319    6.7628   -1.4734 C   0  0  0  0  0  0  0  0  0  0  0  0
    1.1942    7.7555   -2.4324 C   0  0  0  0  0  0  0  0  0  0  0  0
    0.2011    7.1163   -3.2225 O   0  0  0  0  0  0  0  0  0  0  0  0
   -0.8347    6.5414   -2.4374 C   0  0  0  0  0  0  0  0  0  0  0  0
   -0.2837    5.4992   -1.4763 C   0  0  0  0  0  0  0  0  0  0  0  0
   -0.8455   -0.3395    1.7791 C   0  0  0  0  0  0  0  0  0  0  0  0
   -1.5362   -1.5469    1.7743 C   0  0  0  0  0  0  0  0  0  0  0  0
   -2.9665   -1.6850    2.7558 S   0  0  0  0  0  0  0  0  0  0  0  0
   -4.0974   -1.9854    1.9164 O   0  0  0  0  0  0  0  0  0  0  0  0
   -2.7885   -2.7418    3.7176 O   0  0  0  0  0  0  0  0  0  0  0  0
   -3.2486   -0.1661    3.5986 N   0  0  0  0  0  0  0  0  0  0  0  0
   -3.5259    0.9072    2.6341 C   0  0  0  0  0  0  0  0  0  0  0  0
   -3.4094    2.3148    3.2119 C   0  0  0  0  0  0  0  0  0  0  0  0
   -4.7058    2.8766    3.7786 C   0  0  0  0  0  0  0  0  0  0  0  0
   -5.5355    1.8632    4.5572 C   0  0  0  0  0  0  0  0  0  0  0  0
   -4.6929    0.8848    5.3640 C   0  0  0  0  0  0  0  0  0  0  0  0
   -4.3182   -0.3753    4.5917 C   0  0  0  0  0  0  0  0  0  0  0  0
   -1.3516   -4.5762    0.3680 H   0  0  0  0  0  0  0  0  0  0  0  0
   -1.8504   -4.3240    1.9023 H   0  0  0  0  0  0  0  0  0  0  0  0
   -2.7594   -3.7988    0.6515 H   0  0  0  0  0  0  0  0  0  0  0  0
    0.3822   -3.2410   -0.3316 H   0  0  0  0  0  0  0  0  0  0  0  0
    1.5827   -1.1684   -0.3334 H   0  0  0  0  0  0  0  0  0  0  0  0
    0.5000    1.8660    1.0000 H   0  0  0  0  0  0  0  0  0  0  0  0
    4.0550    2.1865    1.0000 H   0  0  0  0  0  0  0  0  0  0  0  0
    0.8853    5.9417    2.2332 H   0  0  0  0  0  0  0  0  0  0  0  0
    2.0865    3.8520    3.1019 H   0  0  0  0  0  0  0  0  0  0  0  0
    0.3266    6.8783   -0.0455 H   0  0  0  0  0  0  0  0  0  0  0  0
    2.2822    6.0380   -1.9949 H   0  0  0  0  0  0  0  0  0  0  0  0
    2.5071    7.2342   -0.9061 H   0  0  0  0  0  0  0  0  0  0  0  0
    0.7719    8.4949   -1.9079 H   0  0  0  0  0  0  0  0  0  0  0  0
    1.8995    8.1331   -3.0323 H   0  0  0  0  0  0  0  0  0  0  0  0
   -1.5002    6.1062   -3.0438 H   0  0  0  0  0  0  0  0  0  0  0  0
   -1.2847    7.2636   -1.9121 H   0  0  0  0  0  0  0  0  0  0  0  0
   -1.0260    5.1355   -0.9136 H   0  0  0  0  0  0  0  0  0  0  0  0
    0.1378    4.7546   -1.9939 H   0  0  0  0  0  0  0  0  0  0  0  0
   -1.1678    0.4268    2.3350 H   0  0  0  0  0  0  0  0  0  0  0  0
   -4.4568    0.7860    2.2895 H   0  0  0  0  0  0  0  0  0  0  0  0
   -2.8771    0.8242    1.8777 H   0  0  0  0  0  0  0  0  0  0  0  0
   -3.0964    2.9256    2.4846 H   0  0  0  0  0  0  0  0  0  0  0  0
   -2.7306    2.2954    3.9460 H   0  0  0  0  0  0  0  0  0  0  0  0
   -5.2589    3.2176    3.0186 H   0  0  0  0  0  0  0  0  0  0  0  0
   -4.4786    3.6335    4.3914 H   0  0  0  0  0  0  0  0  0  0  0  0
   -6.1340    2.3596    5.1860 H   0  0  0  0  0  0  0  0  0  0  0  0
   -6.0913    1.3432    3.9086 H   0  0  0  0  0  0  0  0  0  0  0  0
   -3.8512    1.3471    5.6430 H   0  0  0  0  0  0  0  0  0  0  0  0
   -5.2106    0.6160    6.1762 H   0  0  0  0  0  0  0  0  0  0  0  0
   -4.0110   -1.0667    5.2456 H   0  0  0  0  0  0  0  0  0  0  0  0
   -5.1320   -0.7065    4.1141 H   0  0  0  0  0  0  0  0  0  0  0  0
  1  2  1  0  0  0  0
  2  3  2  0  0  0  0
  2 22  1  0  0  0  0
  3  4  1  0  0  0  0
  4  5  2  0  0  0  0
  5  6  1  0  0  0  0
  5 21  1  0  0  0  0
  6  7  1  0  0  0  0
  7  8  2  0  0  0  0
  7  9  1  0  0  0  0
  9 10  1  0  0  0  0
 10 11  2  0  0  0  0
 10 14  1  0  0  0  0
 11 12  1  0  0  0  0
 12 13  1  0  0  0  0
 12 15  1  0  0  0  0
 13 14  2  0  0  0  0
 15 16  1  0  0  0  0
 15 20  1  0  0  0  0
 16 17  1  0  0  0  0
 17 18  1  0  0  0  0
 18 19  1  0  0  0  0
 19 20  1  0  0  0  0
 21 22  2  0  0  0  0
 22 23  1  0  0  0  0
 23 24  2  0  0  0  0
 23 25  2  0  0  0  0
 23 26  1  0  0  0  0
 26 27  1  0  0  0  0
 26 32  1  0  0  0  0
 27 28  1  0  0  0  0
 28 29  1  0  0  0  0
 29 30  1  0  0  0  0
 30 31  1  0  0  0  0
 31 32  1  0  0  0  0
  1 33  1  0  0  0  0
  1 34  1  0  0  0  0
  1 35  1  0  0  0  0
  3 36  1  0  0  0  0
  4 37  1  0  0  0  0
  6 38  1  0  0  0  0
  9 39  1  0  0  0  0
 13 40  1  0  0  0  0
 14 41  1  0  0  0  0
 15 42  1  0  0  0  0
 16 43  1  0  0  0  0
 16 44  1  0  0  0  0
 17 45  1  0  0  0  0
 17 46  1  0  0  0  0
 19 47  1  0  0  0  0
 19 48  1  0  0  0  0
 20 49  1  0  0  0  0
 20 50  1  0  0  0  0
 21 51  1  0  0  0  0
 27 52  1  0  0  0  0
 27 53  1  0  0  0  0
 28 54  1  0  0  0  0
 28 55  1  0  0  0  0
 29 56  1  0  0  0  0
 29 57  1  0  0  0  0
 30 58  1  0  0  0  0
 30 59  1  0  0  0  0
 31 60  1  0  0  0  0
 31 61  1  0  0  0  0
 32 62  1  0  0  0  0
 32 63  1  0  0  0  0
M  END
$$$$
﻿
          05302416083D 1   1.00000     0.00000     0
            
 63 66  0  0  0  0            999 V2000
   -1.8328   -3.9373    0.9717 C   0  0  0  0  0  0  0  0  0  0  0  0
   -1.0870   -2.6130    1.0006 C   0  0  0  0  0  0  0  0  0  0  0  0
   -0.2182   -2.3146   -0.0445 C   0  0  0  0  0  0  0  0  0  0  0  0
    0.4792   -1.1107   -0.0473 C   0  0  0  0  0  0  0  0  0  0  0  0
    0.2998   -0.2127    1.0000 C   0  0  0  0  0  0  0  0  0  0  0  0
    1.0000    1.0000    1.0000 N   0  0  0  0  0  0  0  0  0  0  0  0
    2.3700    1.0000    1.0000 C   0  0  0  0  0  0  0  0  0  0  0  0
    2.9700   -0.0392    1.0000 O   0  0  0  0  0  0  0  0  0  0  0  0
    3.0550    2.1865    1.0000 N   0  0  0  0  0  0  0  0  0  0  0  0
    2.3548    3.3992    1.0000 C   0  0  0  0  0  0  0  0  0  0  0  0
    1.9703    4.0651   -0.0626 N   0  0  0  0  0  0  0  0  0  0  0  0
    1.3397    5.1504    0.3232 N   0  0  0  0  0  0  0  0  0  0  0  0
    1.3017    5.2181    1.6827 C   0  0  0  0  0  0  0  0  0  0  0  0
    1.9407    4.1095    2.1467 C   0  0  0  0  0  0  0  0  0  0  0  0
    0.7590    6.1554   -0.5844 C   0  0  0  0  0  0  0  0  0  0  0  0
    1.8319    6.7628   -1.4734 C   0  0  0  0  0  0  0  0  0  0  0  0
    1.1942    7.7555   -2.4324 C   0  0  0  0  0  0  0  0  0  0  0  0
    0.2011    7.1163   -3.2225 O   0  0  0  0  0  0  0  0  0  0  0  0
   -0.8347    6.5414   -2.4374 C   0  0  0  0  0  0  0  0  0  0  0  0
   -0.2837    5.4992   -1.4763 C   0  0  0  0  0  0  0  0  0  0  0  0
   -0.5662   -0.5007    2.0497 C   0  0  0  0  0  0  0  0  0  0  0  0
   -1.2587   -1.7071    2.0433 C   0  0  0  0  0  0  0  0  0  0  0  0
   -2.3372   -2.0484    3.3656 S   0  0  0  0  0  0  0  0  0  0  0  0
   -2.3975   -3.4709    3.5810 O   0  0  0  0  0  0  0  0  0  0  0  0
   -1.8538   -1.4023    4.5583 O   0  0  0  0  0  0  0  0  0  0  0  0
   -3.9458   -1.4442    2.9818 N   0  0  0  0  0  0  0  0  0  0  0  0
   -4.6489   -2.4549    2.1720 C   0  0  0  0  0  0  0  0  0  0  0  0
   -6.0392   -2.0197    1.7253 C   0  0  0  0  0  0  0  0  0  0  0  0
   -6.0025   -0.9866    0.6062 C   0  0  0  0  0  0  0  0  0  0  0  0
   -6.0158    0.4534    1.0991 C   0  0  0  0  0  0  0  0  0  0  0  0
   -5.1812    0.6563    2.3558 C   0  0  0  0  0  0  0  0  0  0  0  0
   -3.8566   -0.1044    2.3711 C   0  0  0  0  0  0  0  0  0  0  0  0
   -1.5781   -4.4455    0.1490 H   0  0  0  0  0  0  0  0  0  0  0  0
   -1.5932   -4.4725    1.7817 H   0  0  0  0  0  0  0  0  0  0  0  0
   -2.8179   -3.7650    0.9654 H   0  0  0  0  0  0  0  0  0  0  0  0
   -0.0950   -2.9655   -0.7936 H   0  0  0  0  0  0  0  0  0  0  0  0
    1.1047   -0.8925   -0.7964 H   0  0  0  0  0  0  0  0  0  0  0  0
    0.5000    1.8660    1.0000 H   0  0  0  0  0  0  0  0  0  0  0  0
    4.0550    2.1865    1.0000 H   0  0  0  0  0  0  0  0  0  0  0  0
    0.8853    5.9417    2.2332 H   0  0  0  0  0  0  0  0  0  0  0  0
    2.0865    3.8520    3.1019 H   0  0  0  0  0  0  0  0  0  0  0  0
    0.3266    6.8783   -0.0455 H   0  0  0  0  0  0  0  0  0  0  0  0
    2.2822    6.0380   -1.9949 H   0  0  0  0  0  0  0  0  0  0  0  0
    2.5071    7.2342   -0.9061 H   0  0  0  0  0  0  0  0  0  0  0  0
    0.7719    8.4949   -1.9079 H   0  0  0  0  0  0  0  0  0  0  0  0
    1.8995    8.1331   -3.0323 H   0  0  0  0  0  0  0  0  0  0  0  0
   -1.5002    6.1062   -3.0438 H   0  0  0  0  0  0  0  0  0  0  0  0
   -1.2847    7.2636   -1.9121 H   0  0  0  0  0  0  0  0  0  0  0  0
   -1.0260    5.1355   -0.9136 H   0  0  0  0  0  0  0  0  0  0  0  0
    0.1378    4.7546   -1.9939 H   0  0  0  0  0  0  0  0  0  0  0  0
   -0.6894    0.1505    2.7985 H   0  0  0  0  0  0  0  0  0  0  0  0
   -4.7383   -3.2893    2.7158 H   0  0  0  0  0  0  0  0  0  0  0  0
   -4.1004   -2.6449    1.3577 H   0  0  0  0  0  0  0  0  0  0  0  0
   -6.5177   -1.6247    2.5095 H   0  0  0  0  0  0  0  0  0  0  0  0
   -6.5372   -2.8241    1.4015 H   0  0  0  0  0  0  0  0  0  0  0  0
   -6.8013   -1.1270    0.0212 H   0  0  0  0  0  0  0  0  0  0  0  0
   -5.1691   -1.1294    0.0724 H   0  0  0  0  0  0  0  0  0  0  0  0
   -5.6527    1.0415    0.3764 H   0  0  0  0  0  0  0  0  0  0  0  0
   -6.9605    0.7141    1.2978 H   0  0  0  0  0  0  0  0  0  0  0  0
   -4.9812    1.6322    2.4428 H   0  0  0  0  0  0  0  0  0  0  0  0
   -5.7224    0.3556    3.1411 H   0  0  0  0  0  0  0  0  0  0  0  0
   -3.5419   -0.2084    1.4277 H   0  0  0  0  0  0  0  0  0  0  0  0
   -3.1902    0.4335    2.8875 H   0  0  0  0  0  0  0  0  0  0  0  0
  1  2  1  0  0  0  0
  2  3  2  0  0  0  0
  2 22  1  0  0  0  0
  3  4  1  0  0  0  0
  4  5  2  0  0  0  0
  5  6  1  0  0  0  0
  5 21  1  0  0  0  0
  6  7  1  0  0  0  0
  7  8  2  0  0  0  0
  7  9  1  0  0  0  0
  9 10  1  0  0  0  0
 10 11  2  0  0  0  0
 10 14  1  0  0  0  0
 11 12  1  0  0  0  0
 12 13  1  0  0  0  0
 12 15  1  0  0  0  0
 13 14  2  0  0  0  0
 15 16  1  0  0  0  0
 15 20  1  0  0  0  0
 16 17  1  0  0  0  0
 17 18  1  0  0  0  0
 18 19  1  0  0  0  0
 19 20  1  0  0  0  0
 21 22  2  0  0  0  0
 22 23  1  0  0  0  0
 23 24  2  0  0  0  0
 23 25  2  0  0  0  0
 23 26  1  0  0  0  0
 26 27  1  0  0  0  0
 26 32  1  0  0  0  0
 27 28  1  0  0  0  0
 28 29  1  0  0  0  0
 29 30  1  0  0  0  0
 30 31  1  0  0  0  0
 31 32  1  0  0  0  0
  1 33  1  0  0  0  0
  1 34  1  0  0  0  0
  1 35  1  0  0  0  0
  3 36  1  0  0  0  0
  4 37  1  0  0  0  0
  6 38  1  0  0  0  0
  9 39  1  0  0  0  0
 13 40  1  0  0  0  0
 14 41  1  0  0  0  0
 15 42  1  0  0  0  0
 16 43  1  0  0  0  0
 16 44  1  0  0  0  0
 17 45  1  0  0  0  0
 17 46  1  0  0  0  0
 19 47  1  0  0  0  0
 19 48  1  0  0  0  0
 20 49  1  0  0  0  0
 20 50  1  0  0  0  0
 21 51  1  0  0  0  0
 27 52  1  0  0  0  0
 27 53  1  0  0  0  0
 28 54  1  0  0  0  0
 28 55  1  0  0  0  0
 29 56  1  0  0  0  0
 29 57  1  0  0  0  0
 30 58  1  0  0  0  0
 30 59  1  0  0  0  0
 31 60  1  0  0  0  0
 31 61  1  0  0  0  0
 32 62  1  0  0  0  0
 32 63  1  0  0  0  0
M  END
$$$$
﻿
          05302416083D 1   1.00000     0.00000     0
            
 63 66  0  0  0  0            999 V2000
   -1.8243   -3.9422    1.0200 C   0  0  0  0  0  0  0  0  0  0  0  0
   -1.0866   -2.6133    0.9990 C   0  0  0  0  0  0  0  0  0  0  0  0
    0.0604   -2.4754    1.7746 C   0  0  0  0  0  0  0  0  0  0  0  0
    0.7582   -1.2717    1.7770 C   0  0  0  0  0  0  0  0  0  0  0  0
    0.2998   -0.2127    1.0000 C   0  0  0  0  0  0  0  0  0  0  0  0
    1.0000    1.0000    1.0000 N   0  0  0  0  0  0  0  0  0  0  0  0
    2.3700    1.0000    1.0000 C   0  0  0  0  0  0  0  0  0  0  0  0
    2.9700   -0.0392    1.0000 O   0  0  0  0  0  0  0  0  0  0  0  0
    3.0550    2.1865    1.0000 N   0  0  0  0  0  0  0  0  0  0  0  0
    2.3548    3.3992    1.0000 C   0  0  0  0  0  0  0  0  0  0  0  0
    1.9703    4.0651   -0.0626 N   0  0  0  0  0  0  0  0  0  0  0  0
    1.3397    5.1504    0.3232 N   0  0  0  0  0  0  0  0  0  0  0  0
    1.3017    5.2181    1.6827 C   0  0  0  0  0  0  0  0  0  0  0  0
    1.9407    4.1095    2.1467 C   0  0  0  0  0  0  0  0  0  0  0  0
    0.7600    6.1537   -0.5829 C   0  0  0  0  0  0  0  0  0  0  0  0
   -0.2980    5.5352   -1.4822 C   0  0  0  0  0  0  0  0  0  0  0  0
   -0.8458    6.5826   -2.4383 C   0  0  0  0  0  0  0  0  0  0  0  0
    0.1963    7.1406   -3.2269 O   0  0  0  0  0  0  0  0  0  0  0  0
    1.2111    7.7509   -2.4414 C   0  0  0  0  0  0  0  0  0  0  0  0
    1.8323    6.7479   -1.4825 C   0  0  0  0  0  0  0  0  0  0  0  0
   -0.8455   -0.3395    0.2209 C   0  0  0  0  0  0  0  0  0  0  0  0
   -1.5361   -1.5470    0.2255 C   0  0  0  0  0  0  0  0  0  0  0  0
   -2.9664   -1.6851   -0.7560 S   0  0  0  0  0  0  0  0  0  0  0  0
   -3.7216   -0.4615   -0.6786 O   0  0  0  0  0  0  0  0  0  0  0  0
   -2.5883   -1.9301   -2.1237 O   0  0  0  0  0  0  0  0  0  0  0  0
   -3.9527   -3.0216   -0.1712 N   0  0  0  0  0  0  0  0  0  0  0  0
   -4.4094   -2.7101    1.1966 C   0  0  0  0  0  0  0  0  0  0  0  0
   -4.8764   -3.9660    1.9337 C   0  0  0  0  0  0  0  0  0  0  0  0
   -6.3740   -4.2274    1.8642 C   0  0  0  0  0  0  0  0  0  0  0  0
   -6.9077   -3.9816    0.4573 C   0  0  0  0  0  0  0  0  0  0  0  0
   -5.9637   -4.3775   -0.6708 C   0  0  0  0  0  0  0  0  0  0  0  0
   -5.0547   -3.2478   -1.1203 C   0  0  0  0  0  0  0  0  0  0  0  0
   -1.3504   -4.5769    1.6304 H   0  0  0  0  0  0  0  0  0  0  0  0
   -2.7584   -3.7998    1.3472 H   0  0  0  0  0  0  0  0  0  0  0  0
   -1.8493   -4.3242    0.0962 H   0  0  0  0  0  0  0  0  0  0  0  0
    0.3833   -3.2416    2.3302 H   0  0  0  0  0  0  0  0  0  0  0  0
    1.5828   -1.1685    2.3331 H   0  0  0  0  0  0  0  0  0  0  0  0
    0.5000    1.8660    1.0000 H   0  0  0  0  0  0  0  0  0  0  0  0
    4.0550    2.1865    1.0000 H   0  0  0  0  0  0  0  0  0  0  0  0
    0.8853    5.9417    2.2332 H   0  0  0  0  0  0  0  0  0  0  0  0
    2.0865    3.8520    3.1019 H   0  0  0  0  0  0  0  0  0  0  0  0
    0.3441    6.8841   -0.0411 H   0  0  0  0  0  0  0  0  0  0  0  0
   -1.0437    5.1786   -0.9194 H   0  0  0  0  0  0  0  0  0  0  0  0
    0.1096    4.7883   -2.0076 H   0  0  0  0  0  0  0  0  0  0  0  0
   -1.5201    6.1558   -3.0409 H   0  0  0  0  0  0  0  0  0  0  0  0
   -1.2836    7.3108   -1.9110 H   0  0  0  0  0  0  0  0  0  0  0  0
    0.8111    8.5018   -1.9159 H   0  0  0  0  0  0  0  0  0  0  0  0
    1.9222    8.1092   -3.0464 H   0  0  0  0  0  0  0  0  0  0  0  0
    2.2682    6.0158   -2.0060 H   0  0  0  0  0  0  0  0  0  0  0  0
    2.5183    7.2092   -0.9197 H   0  0  0  0  0  0  0  0  0  0  0  0
   -1.1680    0.4268   -0.3348 H   0  0  0  0  0  0  0  0  0  0  0  0
   -5.1695   -2.0623    1.1453 H   0  0  0  0  0  0  0  0  0  0  0  0
   -3.6536   -2.2975    1.7050 H   0  0  0  0  0  0  0  0  0  0  0  0
   -4.6209   -3.8747    2.8962 H   0  0  0  0  0  0  0  0  0  0  0  0
   -4.4044   -4.7532    1.5368 H   0  0  0  0  0  0  0  0  0  0  0  0
   -6.8424   -3.6168    2.5028 H   0  0  0  0  0  0  0  0  0  0  0  0
   -6.5522   -5.1776    2.1200 H   0  0  0  0  0  0  0  0  0  0  0  0
   -7.7535   -4.5045    0.3512 H   0  0  0  0  0  0  0  0  0  0  0  0
   -7.1057   -3.0056    0.3672 H   0  0  0  0  0  0  0  0  0  0  0  0
   -5.3940   -5.1366   -0.3558 H   0  0  0  0  0  0  0  0  0  0  0  0
   -6.5114   -4.6741   -1.4531 H   0  0  0  0  0  0  0  0  0  0  0  0
   -4.6698   -3.4783   -2.0141 H   0  0  0  0  0  0  0  0  0  0  0  0
   -5.5939   -2.4091   -1.1959 H   0  0  0  0  0  0  0  0  0  0  0  0
  1  2  1  0  0  0  0
  2  3  2  0  0  0  0
  2 22  1  0  0  0  0
  3  4  1  0  0  0  0
  4  5  2  0  0  0  0
  5  6  1  0  0  0  0
  5 21  1  0  0  0  0
  6  7  1  0  0  0  0
  7  8  2  0  0  0  0
  7  9  1  0  0  0  0
  9 10  1  0  0  0  0
 10 11  2  0  0  0  0
 10 14  1  0  0  0  0
 11 12  1  0  0  0  0
 12 13  1  0  0  0  0
 12 15  1  0  0  0  0
 13 14  2  0  0  0  0
 15 16  1  0  0  0  0
 15 20  1  0  0  0  0
 16 17  1  0  0  0  0
 17 18  1  0  0  0  0
 18 19  1  0  0  0  0
 19 20  1  0  0  0  0
 21 22  2  0  0  0  0
 22 23  1  0  0  0  0
 23 24  2  0  0  0  0
 23 25  2  0  0  0  0
 23 26  1  0  0  0  0
 26 27  1  0  0  0  0
 26 32  1  0  0  0  0
 27 28  1  0  0  0  0
 28 29  1  0  0  0  0
 29 30  1  0  0  0  0
 30 31  1  0  0  0  0
 31 32  1  0  0  0  0
  1 33  1  0  0  0  0
  1 34  1  0  0  0  0
  1 35  1  0  0  0  0
  3 36  1  0  0  0  0
  4 37  1  0  0  0  0
  6 38  1  0  0  0  0
  9 39  1  0  0  0  0
 13 40  1  0  0  0  0
 14 41  1  0  0  0  0
 15 42  1  0  0  0  0
 16 43  1  0  0  0  0
 16 44  1  0  0  0  0
 17 45  1  0  0  0  0
 17 46  1  0  0  0  0
 19 47  1  0  0  0  0
 19 48  1  0  0  0  0
 20 49  1  0  0  0  0
 20 50  1  0  0  0  0
 21 51  1  0  0  0  0
 27 52  1  0  0  0  0
 27 53  1  0  0  0  0
 28 54  1  0  0  0  0
 28 55  1  0  0  0  0
 29 56  1  0  0  0  0
 29 57  1  0  0  0  0
 30 58  1  0  0  0  0
 30 59  1  0  0  0  0
 31 60  1  0  0  0  0
 31 61  1  0  0  0  0
 32 62  1  0  0  0  0
 32 63  1  0  0  0  0
M  END
$$$$
﻿
          05302416083D 1   1.00000     0.00000     0
            
 63 66  0  0  0  0            999 V2000
   -1.8315   -3.9380    1.0274 C   0  0  0  0  0  0  0  0  0  0  0  0
   -1.0863   -2.6135    0.9989 C   0  0  0  0  0  0  0  0  0  0  0  0
   -0.2173   -2.3151    2.0439 C   0  0  0  0  0  0  0  0  0  0  0  0
    0.4796   -1.1109    2.0470 C   0  0  0  0  0  0  0  0  0  0  0  0
    0.2998   -0.2127    1.0000 C   0  0  0  0  0  0  0  0  0  0  0  0
    1.0000    1.0000    1.0000 N   0  0  0  0  0  0  0  0  0  0  0  0
    2.3700    1.0000    1.0000 C   0  0  0  0  0  0  0  0  0  0  0  0
    2.9700   -0.0392    1.0000 O   0  0  0  0  0  0  0  0  0  0  0  0
    3.0550    2.1865    1.0000 N   0  0  0  0  0  0  0  0  0  0  0  0
    2.3548    3.3992    1.0000 C   0  0  0  0  0  0  0  0  0  0  0  0
    1.9703    4.0651   -0.0626 N   0  0  0  0  0  0  0  0  0  0  0  0
    1.3397    5.1504    0.3232 N   0  0  0  0  0  0  0  0  0  0  0  0
    1.3017    5.2181    1.6827 C   0  0  0  0  0  0  0  0  0  0  0  0
    1.9407    4.1095    2.1467 C   0  0  0  0  0  0  0  0  0  0  0  0
    0.7600    6.1537   -0.5829 C   0  0  0  0  0  0  0  0  0  0  0  0
   -0.2980    5.5352   -1.4822 C   0  0  0  0  0  0  0  0  0  0  0  0
   -0.8458    6.5826   -2.4383 C   0  0  0  0  0  0  0  0  0  0  0  0
    0.1963    7.1406   -3.2269 O   0  0  0  0  0  0  0  0  0  0  0  0
    1.2111    7.7509   -2.4414 C   0  0  0  0  0  0  0  0  0  0  0  0
    1.8323    6.7479   -1.4825 C   0  0  0  0  0  0  0  0  0  0  0  0
   -0.5662   -0.5007   -0.0497 C   0  0  0  0  0  0  0  0  0  0  0  0
   -1.2585   -1.7072   -0.0434 C   0  0  0  0  0  0  0  0  0  0  0  0
   -2.3370   -2.0485   -1.3657 S   0  0  0  0  0  0  0  0  0  0  0  0
   -3.6160   -2.4604   -0.8479 O   0  0  0  0  0  0  0  0  0  0  0  0
   -2.5028   -0.8641   -2.1678 O   0  0  0  0  0  0  0  0  0  0  0  0
   -1.6621   -3.3376   -2.3556 N   0  0  0  0  0  0  0  0  0  0  0  0
   -1.1328   -4.4104   -1.5023 C   0  0  0  0  0  0  0  0  0  0  0  0
   -0.1999   -5.3806   -2.2214 C   0  0  0  0  0  0  0  0  0  0  0  0
   -0.8921   -6.5929   -2.8286 C   0  0  0  0  0  0  0  0  0  0  0  0
   -2.2279   -6.2798   -3.4914 C   0  0  0  0  0  0  0  0  0  0  0  0
   -2.2484   -4.9341   -4.2033 C   0  0  0  0  0  0  0  0  0  0  0  0
   -2.6940   -3.7810   -3.3109 C   0  0  0  0  0  0  0  0  0  0  0  0
   -1.5764   -4.4464    1.8499 H   0  0  0  0  0  0  0  0  0  0  0  0
   -2.8166   -3.7662    1.0339 H   0  0  0  0  0  0  0  0  0  0  0  0
   -1.5918   -4.4729    0.2172 H   0  0  0  0  0  0  0  0  0  0  0  0
   -0.0936   -2.9663    2.7927 H   0  0  0  0  0  0  0  0  0  0  0  0
    1.1050   -0.8926    2.7962 H   0  0  0  0  0  0  0  0  0  0  0  0
    0.5000    1.8660    1.0000 H   0  0  0  0  0  0  0  0  0  0  0  0
    4.0550    2.1865    1.0000 H   0  0  0  0  0  0  0  0  0  0  0  0
    0.8853    5.9417    2.2332 H   0  0  0  0  0  0  0  0  0  0  0  0
    2.0865    3.8520    3.1019 H   0  0  0  0  0  0  0  0  0  0  0  0
    0.3441    6.8841   -0.0411 H   0  0  0  0  0  0  0  0  0  0  0  0
   -1.0437    5.1786   -0.9194 H   0  0  0  0  0  0  0  0  0  0  0  0
    0.1096    4.7883   -2.0076 H   0  0  0  0  0  0  0  0  0  0  0  0
   -1.5201    6.1558   -3.0409 H   0  0  0  0  0  0  0  0  0  0  0  0
   -1.2836    7.3108   -1.9110 H   0  0  0  0  0  0  0  0  0  0  0  0
    0.8111    8.5018   -1.9159 H   0  0  0  0  0  0  0  0  0  0  0  0
    1.9222    8.1092   -3.0464 H   0  0  0  0  0  0  0  0  0  0  0  0
    2.2682    6.0158   -2.0060 H   0  0  0  0  0  0  0  0  0  0  0  0
    2.5183    7.2092   -0.9197 H   0  0  0  0  0  0  0  0  0  0  0  0
   -0.6895    0.1506   -0.7984 H   0  0  0  0  0  0  0  0  0  0  0  0
   -1.9050   -4.9304   -1.1373 H   0  0  0  0  0  0  0  0  0  0  0  0
   -0.6276   -3.9906   -0.7482 H   0  0  0  0  0  0  0  0  0  0  0  0
    0.4790   -5.7063   -1.5633 H   0  0  0  0  0  0  0  0  0  0  0  0
    0.2605   -4.8835   -2.9568 H   0  0  0  0  0  0  0  0  0  0  0  0
   -1.0513   -7.2605   -2.1013 H   0  0  0  0  0  0  0  0  0  0  0  0
   -0.2850   -6.9888   -3.5175 H   0  0  0  0  0  0  0  0  0  0  0  0
   -2.4251   -6.9958   -4.1610 H   0  0  0  0  0  0  0  0  0  0  0  0
   -2.9382   -6.2770   -2.7875 H   0  0  0  0  0  0  0  0  0  0  0  0
   -1.3261   -4.7383   -4.5367 H   0  0  0  0  0  0  0  0  0  0  0  0
   -2.8770   -4.9956   -4.9786 H   0  0  0  0  0  0  0  0  0  0  0  0
   -2.9377   -3.0063   -3.8944 H   0  0  0  0  0  0  0  0  0  0  0  0
   -3.4978   -4.0746   -2.7936 H   0  0  0  0  0  0  0  0  0  0  0  0
  1  2  1  0  0  0  0
  2  3  2  0  0  0  0
  2 22  1  0  0  0  0
  3  4  1  0  0  0  0
  4  5  2  0  0  0  0
  5  6  1  0  0  0  0
  5 21  1  0  0  0  0
  6  7  1  0  0  0  0
  7  8  2  0  0  0  0
  7  9  1  0  0  0  0
  9 10  1  0  0  0  0
 10 11  2  0  0  0  0
 10 14  1  0  0  0  0
 11 12  1  0  0  0  0
 12 13  1  0  0  0  0
 12 15  1  0  0  0  0
 13 14  2  0  0  0  0
 15 16  1  0  0  0  0
 15 20  1  0  0  0  0
 16 17  1  0  0  0  0
 17 18  1  0  0  0  0
 18 19  1  0  0  0  0
 19 20  1  0  0  0  0
 21 22  2  0  0  0  0
 22 23  1  0  0  0  0
 23 24  2  0  0  0  0
 23 25  2  0  0  0  0
 23 26  1  0  0  0  0
 26 27  1  0  0  0  0
 26 32  1  0  0  0  0
 27 28  1  0  0  0  0
 28 29  1  0  0  0  0
 29 30  1  0  0  0  0
 30 31  1  0  0  0  0
 31 32  1  0  0  0  0
  1 33  1  0  0  0  0
  1 34  1  0  0  0  0
  1 35  1  0  0  0  0
  3 36  1  0  0  0  0
  4 37  1  0  0  0  0
  6 38  1  0  0  0  0
  9 39  1  0  0  0  0
 13 40  1  0  0  0  0
 14 41  1  0  0  0  0
 15 42  1  0  0  0  0
 16 43  1  0  0  0  0
 16 44  1  0  0  0  0
 17 45  1  0  0  0  0
 17 46  1  0  0  0  0
 19 47  1  0  0  0  0
 19 48  1  0  0  0  0
 20 49  1  0  0  0  0
 20 50  1  0  0  0  0
 21 51  1  0  0  0  0
 27 52  1  0  0  0  0
 27 53  1  0  0  0  0
 28 54  1  0  0  0  0
 28 55  1  0  0  0  0
 29 56  1  0  0  0  0
 29 57  1  0  0  0  0
 30 58  1  0  0  0  0
 30 59  1  0  0  0  0
 31 60  1  0  0  0  0
 31 61  1  0  0  0  0
 32 62  1  0  0  0  0
 32 63  1  0  0  0  0
M  END
$$$$
﻿
          05302416083D 1   1.00000     0.00000     0
            
 63 66  0  0  0  0            999 V2000
   -1.8315   -3.9380    1.0274 C   0  0  0  0  0  0  0  0  0  0  0  0
   -1.0863   -2.6135    0.9989 C   0  0  0  0  0  0  0  0  0  0  0  0
   -0.2173   -2.3151    2.0439 C   0  0  0  0  0  0  0  0  0  0  0  0
    0.4796   -1.1109    2.0470 C   0  0  0  0  0  0  0  0  0  0  0  0
    0.2998   -0.2127    1.0000 C   0  0  0  0  0  0  0  0  0  0  0  0
    1.0000    1.0000    1.0000 N   0  0  0  0  0  0  0  0  0  0  0  0
    2.3700    1.0000    1.0000 C   0  0  0  0  0  0  0  0  0  0  0  0
    2.9700   -0.0392    1.0000 O   0  0  0  0  0  0  0  0  0  0  0  0
    3.0550    2.1865    1.0000 N   0  0  0  0  0  0  0  0  0  0  0  0
    2.3548    3.3992    1.0000 C   0  0  0  0  0  0  0  0  0  0  0  0
    1.9703    4.0651   -0.0626 N   0  0  0  0  0  0  0  0  0  0  0  0
    1.3397    5.1504    0.3232 N   0  0  0  0  0  0  0  0  0  0  0  0
    1.3017    5.2181    1.6827 C   0  0  0  0  0  0  0  0  0  0  0  0
    1.9407    4.1095    2.1467 C   0  0  0  0  0  0  0  0  0  0  0  0
    0.7600    6.1537   -0.5829 C   0  0  0  0  0  0  0  0  0  0  0  0
   -0.2980    5.5352   -1.4822 C   0  0  0  0  0  0  0  0  0  0  0  0
   -0.8458    6.5826   -2.4383 C   0  0  0  0  0  0  0  0  0  0  0  0
    0.1963    7.1406   -3.2269 O   0  0  0  0  0  0  0  0  0  0  0  0
    1.2111    7.7509   -2.4414 C   0  0  0  0  0  0  0  0  0  0  0  0
    1.8323    6.7479   -1.4825 C   0  0  0  0  0  0  0  0  0  0  0  0
   -0.5662   -0.5007   -0.0497 C   0  0  0  0  0  0  0  0  0  0  0  0
   -1.2585   -1.7072   -0.0434 C   0  0  0  0  0  0  0  0  0  0  0  0
   -2.3370   -2.0485   -1.3657 S   0  0  0  0  0  0  0  0  0  0  0  0
   -1.8540   -1.4018   -2.5583 O   0  0  0  0  0  0  0  0  0  0  0  0
   -2.3967   -3.4709   -1.5817 O   0  0  0  0  0  0  0  0  0  0  0  0
   -3.9458   -1.4452   -0.9815 N   0  0  0  0  0  0  0  0  0  0  0  0
   -4.0077   -0.0135   -1.3249 C   0  0  0  0  0  0  0  0  0  0  0  0
   -5.3407    0.6396   -0.9812 C   0  0  0  0  0  0  0  0  0  0  0  0
   -5.5131    0.8765    0.5139 C   0  0  0  0  0  0  0  0  0  0  0  0
   -6.2048   -0.2676    1.2413 C   0  0  0  0  0  0  0  0  0  0  0  0
   -5.7830   -1.6367    0.7269 C   0  0  0  0  0  0  0  0  0  0  0  0
   -4.2935   -1.7694    0.4149 C   0  0  0  0  0  0  0  0  0  0  0  0
   -1.5764   -4.4464    1.8499 H   0  0  0  0  0  0  0  0  0  0  0  0
   -2.8166   -3.7662    1.0339 H   0  0  0  0  0  0  0  0  0  0  0  0
   -1.5918   -4.4729    0.2172 H   0  0  0  0  0  0  0  0  0  0  0  0
   -0.0936   -2.9663    2.7927 H   0  0  0  0  0  0  0  0  0  0  0  0
    1.1050   -0.8926    2.7962 H   0  0  0  0  0  0  0  0  0  0  0  0
    0.5000    1.8660    1.0000 H   0  0  0  0  0  0  0  0  0  0  0  0
    4.0550    2.1865    1.0000 H   0  0  0  0  0  0  0  0  0  0  0  0
    0.8853    5.9417    2.2332 H   0  0  0  0  0  0  0  0  0  0  0  0
    2.0865    3.8520    3.1019 H   0  0  0  0  0  0  0  0  0  0  0  0
    0.3441    6.8841   -0.0411 H   0  0  0  0  0  0  0  0  0  0  0  0
   -1.0437    5.1786   -0.9194 H   0  0  0  0  0  0  0  0  0  0  0  0
    0.1096    4.7883   -2.0076 H   0  0  0  0  0  0  0  0  0  0  0  0
   -1.5201    6.1558   -3.0409 H   0  0  0  0  0  0  0  0  0  0  0  0
   -1.2836    7.3108   -1.9110 H   0  0  0  0  0  0  0  0  0  0  0  0
    0.8111    8.5018   -1.9159 H   0  0  0  0  0  0  0  0  0  0  0  0
    1.9222    8.1092   -3.0464 H   0  0  0  0  0  0  0  0  0  0  0  0
    2.2682    6.0158   -2.0060 H   0  0  0  0  0  0  0  0  0  0  0  0
    2.5183    7.2092   -0.9197 H   0  0  0  0  0  0  0  0  0  0  0  0
   -0.6895    0.1506   -0.7984 H   0  0  0  0  0  0  0  0  0  0  0  0
   -3.8528    0.0827   -2.3082 H   0  0  0  0  0  0  0  0  0  0  0  0
   -3.2842    0.4629   -0.8254 H   0  0  0  0  0  0  0  0  0  0  0  0
   -6.0793    0.0443   -1.2977 H   0  0  0  0  0  0  0  0  0  0  0  0
   -5.3965    1.5196   -1.4528 H   0  0  0  0  0  0  0  0  0  0  0  0
   -6.0573    1.7058    0.6411 H   0  0  0  0  0  0  0  0  0  0  0  0
   -4.6081    1.0063    0.9190 H   0  0  0  0  0  0  0  0  0  0  0  0
   -5.9808   -0.2092    2.2141 H   0  0  0  0  0  0  0  0  0  0  0  0
   -7.1928   -0.1717    1.1205 H   0  0  0  0  0  0  0  0  0  0  0  0
   -6.0176   -2.3165    1.4217 H   0  0  0  0  0  0  0  0  0  0  0  0
   -6.2949   -1.8260   -0.1110 H   0  0  0  0  0  0  0  0  0  0  0  0
   -3.7890   -1.1507    1.0171 H   0  0  0  0  0  0  0  0  0  0  0  0
   -4.0160   -2.7125    0.5980 H   0  0  0  0  0  0  0  0  0  0  0  0
  1  2  1  0  0  0  0
  2  3  2  0  0  0  0
  2 22  1  0  0  0  0
  3  4  1  0  0  0  0
  4  5  2  0  0  0  0
  5  6  1  0  0  0  0
  5 21  1  0  0  0  0
  6  7  1  0  0  0  0
  7  8  2  0  0  0  0
  7  9  1  0  0  0  0
  9 10  1  0  0  0  0
 10 11  2  0  0  0  0
 10 14  1  0  0  0  0
 11 12  1  0  0  0  0
 12 13  1  0  0  0  0
 12 15  1  0  0  0  0
 13 14  2  0  0  0  0
 15 16  1  0  0  0  0
 15 20  1  0  0  0  0
 16 17  1  0  0  0  0
 17 18  1  0  0  0  0
 18 19  1  0  0  0  0
 19 20  1  0  0  0  0
 21 22  2  0  0  0  0
 22 23  1  0  0  0  0
 23 24  2  0  0  0  0
 23 25  2  0  0  0  0
 23 26  1  0  0  0  0
 26 27  1  0  0  0  0
 26 32  1  0  0  0  0
 27 28  1  0  0  0  0
 28 29  1  0  0  0  0
 29 30  1  0  0  0  0
 30 31  1  0  0  0  0
 31 32  1  0  0  0  0
  1 33  1  0  0  0  0
  1 34  1  0  0  0  0
  1 35  1  0  0  0  0
  3 36  1  0  0  0  0
  4 37  1  0  0  0  0
  6 38  1  0  0  0  0
  9 39  1  0  0  0  0
 13 40  1  0  0  0  0
 14 41  1  0  0  0  0
 15 42  1  0  0  0  0
 16 43  1  0  0  0  0
 16 44  1  0  0  0  0
 17 45  1  0  0  0  0
 17 46  1  0  0  0  0
 19 47  1  0  0  0  0
 19 48  1  0  0  0  0
 20 49  1  0  0  0  0
 20 50  1  0  0  0  0
 21 51  1  0  0  0  0
 27 52  1  0  0  0  0
 27 53  1  0  0  0  0
 28 54  1  0  0  0  0
 28 55  1  0  0  0  0
 29 56  1  0  0  0  0
 29 57  1  0  0  0  0
 30 58  1  0  0  0  0
 30 59  1  0  0  0  0
 31 60  1  0  0  0  0
 31 61  1  0  0  0  0
 32 62  1  0  0  0  0
 32 63  1  0  0  0  0
M  END
$$$$
﻿
          05302416083D 1   1.00000     0.00000     0
            
 63 66  0  0  0  0            999 V2000
   -1.8315   -3.9380    1.0274 C   0  0  0  0  0  0  0  0  0  0  0  0
   -1.0863   -2.6135    0.9989 C   0  0  0  0  0  0  0  0  0  0  0  0
   -0.2173   -2.3151    2.0439 C   0  0  0  0  0  0  0  0  0  0  0  0
    0.4796   -1.1109    2.0470 C   0  0  0  0  0  0  0  0  0  0  0  0
    0.2998   -0.2127    1.0000 C   0  0  0  0  0  0  0  0  0  0  0  0
    1.0000    1.0000    1.0000 N   0  0  0  0  0  0  0  0  0  0  0  0
    2.3700    1.0000    1.0000 C   0  0  0  0  0  0  0  0  0  0  0  0
    2.9700   -0.0392    1.0000 O   0  0  0  0  0  0  0  0  0  0  0  0
    3.0550    2.1865    1.0000 N   0  0  0  0  0  0  0  0  0  0  0  0
    2.3548    3.3992    1.0000 C   0  0  0  0  0  0  0  0  0  0  0  0
    1.9703    4.0651   -0.0626 N   0  0  0  0  0  0  0  0  0  0  0  0
    1.3397    5.1504    0.3232 N   0  0  0  0  0  0  0  0  0  0  0  0
    1.3017    5.2181    1.6827 C   0  0  0  0  0  0  0  0  0  0  0  0
    1.9407    4.1095    2.1467 C   0  0  0  0  0  0  0  0  0  0  0  0
    0.7600    6.1537   -0.5829 C   0  0  0  0  0  0  0  0  0  0  0  0
   -0.2980    5.5352   -1.4822 C   0  0  0  0  0  0  0  0  0  0  0  0
   -0.8458    6.5826   -2.4383 C   0  0  0  0  0  0  0  0  0  0  0  0
    0.1963    7.1406   -3.2269 O   0  0  0  0  0  0  0  0  0  0  0  0
    1.2111    7.7509   -2.4414 C   0  0  0  0  0  0  0  0  0  0  0  0
    1.8323    6.7479   -1.4825 C   0  0  0  0  0  0  0  0  0  0  0  0
   -0.5662   -0.5007   -0.0497 C   0  0  0  0  0  0  0  0  0  0  0  0
   -1.2585   -1.7072   -0.0434 C   0  0  0  0  0  0  0  0  0  0  0  0
   -2.3370   -2.0485   -1.3657 S   0  0  0  0  0  0  0  0  0  0  0  0
   -2.2200   -3.4354   -1.7350 O   0  0  0  0  0  0  0  0  0  0  0  0
   -3.6918   -1.7714   -0.9639 O   0  0  0  0  0  0  0  0  0  0  0  0
   -1.9151   -1.0372   -2.7428 N   0  0  0  0  0  0  0  0  0  0  0  0
   -0.5687   -1.3721   -3.2266 C   0  0  0  0  0  0  0  0  0  0  0  0
    0.0435   -0.3244   -4.1521 C   0  0  0  0  0  0  0  0  0  0  0  0
   -0.2347   -0.5463   -5.6322 C   0  0  0  0  0  0  0  0  0  0  0  0
   -1.6539   -1.0100   -5.9362 C   0  0  0  0  0  0  0  0  0  0  0  0
   -2.7031   -0.3755   -5.0337 C   0  0  0  0  0  0  0  0  0  0  0  0
   -2.9725   -1.1716   -3.7616 C   0  0  0  0  0  0  0  0  0  0  0  0
   -1.5764   -4.4464    1.8499 H   0  0  0  0  0  0  0  0  0  0  0  0
   -2.8166   -3.7662    1.0339 H   0  0  0  0  0  0  0  0  0  0  0  0
   -1.5918   -4.4729    0.2172 H   0  0  0  0  0  0  0  0  0  0  0  0
   -0.0936   -2.9663    2.7927 H   0  0  0  0  0  0  0  0  0  0  0  0
    1.1050   -0.8926    2.7962 H   0  0  0  0  0  0  0  0  0  0  0  0
    0.5000    1.8660    1.0000 H   0  0  0  0  0  0  0  0  0  0  0  0
    4.0550    2.1865    1.0000 H   0  0  0  0  0  0  0  0  0  0  0  0
    0.8853    5.9417    2.2332 H   0  0  0  0  0  0  0  0  0  0  0  0
    2.0865    3.8520    3.1019 H   0  0  0  0  0  0  0  0  0  0  0  0
    0.3441    6.8841   -0.0411 H   0  0  0  0  0  0  0  0  0  0  0  0
   -1.0437    5.1786   -0.9194 H   0  0  0  0  0  0  0  0  0  0  0  0
    0.1096    4.7883   -2.0076 H   0  0  0  0  0  0  0  0  0  0  0  0
   -1.5201    6.1558   -3.0409 H   0  0  0  0  0  0  0  0  0  0  0  0
   -1.2836    7.3108   -1.9110 H   0  0  0  0  0  0  0  0  0  0  0  0
    0.8111    8.5018   -1.9159 H   0  0  0  0  0  0  0  0  0  0  0  0
    1.9222    8.1092   -3.0464 H   0  0  0  0  0  0  0  0  0  0  0  0
    2.2682    6.0158   -2.0060 H   0  0  0  0  0  0  0  0  0  0  0  0
    2.5183    7.2092   -0.9197 H   0  0  0  0  0  0  0  0  0  0  0  0
   -0.6895    0.1506   -0.7984 H   0  0  0  0  0  0  0  0  0  0  0  0
   -0.6209   -2.2378   -3.7244 H   0  0  0  0  0  0  0  0  0  0  0  0
    0.0315   -1.4791   -2.4340 H   0  0  0  0  0  0  0  0  0  0  0  0
    1.0343   -0.3295   -4.0167 H   0  0  0  0  0  0  0  0  0  0  0  0
   -0.3233    0.5701   -3.8964 H   0  0  0  0  0  0  0  0  0  0  0  0
    0.4015   -1.2396   -5.9708 H   0  0  0  0  0  0  0  0  0  0  0  0
   -0.0759    0.3154   -6.1141 H   0  0  0  0  0  0  0  0  0  0  0  0
   -1.8678   -0.7756   -6.8845 H   0  0  0  0  0  0  0  0  0  0  0  0
   -1.6947   -2.0025   -5.8209 H   0  0  0  0  0  0  0  0  0  0  0  0
   -2.3878    0.5375   -4.7749 H   0  0  0  0  0  0  0  0  0  0  0  0
   -3.5581   -0.2998   -5.5468 H   0  0  0  0  0  0  0  0  0  0  0  0
   -3.8341   -0.8531   -3.3663 H   0  0  0  0  0  0  0  0  0  0  0  0
   -3.0548   -2.1379   -4.0055 H   0  0  0  0  0  0  0  0  0  0  0  0
  1  2  1  0  0  0  0
  2  3  2  0  0  0  0
  2 22  1  0  0  0  0
  3  4  1  0  0  0  0
  4  5  2  0  0  0  0
  5  6  1  0  0  0  0
  5 21  1  0  0  0  0
  6  7  1  0  0  0  0
  7  8  2  0  0  0  0
  7  9  1  0  0  0  0
  9 10  1  0  0  0  0
 10 11  2  0  0  0  0
 10 14  1  0  0  0  0
 11 12  1  0  0  0  0
 12 13  1  0  0  0  0
 12 15  1  0  0  0  0
 13 14  2  0  0  0  0
 15 16  1  0  0  0  0
 15 20  1  0  0  0  0
 16 17  1  0  0  0  0
 17 18  1  0  0  0  0
 18 19  1  0  0  0  0
 19 20  1  0  0  0  0
 21 22  2  0  0  0  0
 22 23  1  0  0  0  0
 23 24  2  0  0  0  0
 23 25  2  0  0  0  0
 23 26  1  0  0  0  0
 26 27  1  0  0  0  0
 26 32  1  0  0  0  0
 27 28  1  0  0  0  0
 28 29  1  0  0  0  0
 29 30  1  0  0  0  0
 30 31  1  0  0  0  0
 31 32  1  0  0  0  0
  1 33  1  0  0  0  0
  1 34  1  0  0  0  0
  1 35  1  0  0  0  0
  3 36  1  0  0  0  0
  4 37  1  0  0  0  0
  6 38  1  0  0  0  0
  9 39  1  0  0  0  0
 13 40  1  0  0  0  0
 14 41  1  0  0  0  0
 15 42  1  0  0  0  0
 16 43  1  0  0  0  0
 16 44  1  0  0  0  0
 17 45  1  0  0  0  0
 17 46  1  0  0  0  0
 19 47  1  0  0  0  0
 19 48  1  0  0  0  0
 20 49  1  0  0  0  0
 20 50  1  0  0  0  0
 21 51  1  0  0  0  0
 27 52  1  0  0  0  0
 27 53  1  0  0  0  0
 28 54  1  0  0  0  0
 28 55  1  0  0  0  0
 29 56  1  0  0  0  0
 29 57  1  0  0  0  0
 30 58  1  0  0  0  0
 30 59  1  0  0  0  0
 31 60  1  0  0  0  0
 31 61  1  0  0  0  0
 32 62  1  0  0  0  0
 32 63  1  0  0  0  0
M  END
$$$$
﻿
          05302416083D 1   1.00000     0.00000     0
            
 63 66  0  0  0  0            999 V2000
   -1.8328   -3.9373    0.9717 C   0  0  0  0  0  0  0  0  0  0  0  0
   -1.0870   -2.6130    1.0006 C   0  0  0  0  0  0  0  0  0  0  0  0
   -0.2182   -2.3146   -0.0445 C   0  0  0  0  0  0  0  0  0  0  0  0
    0.4792   -1.1107   -0.0473 C   0  0  0  0  0  0  0  0  0  0  0  0
    0.2998   -0.2127    1.0000 C   0  0  0  0  0  0  0  0  0  0  0  0
    1.0000    1.0000    1.0000 N   0  0  0  0  0  0  0  0  0  0  0  0
    2.3700    1.0000    1.0000 C   0  0  0  0  0  0  0  0  0  0  0  0
    2.9700   -0.0392    1.0000 O   0  0  0  0  0  0  0  0  0  0  0  0
    3.0550    2.1865    1.0000 N   0  0  0  0  0  0  0  0  0  0  0  0
    2.3548    3.3992    1.0000 C   0  0  0  0  0  0  0  0  0  0  0  0
    1.9703    4.0651   -0.0626 N   0  0  0  0  0  0  0  0  0  0  0  0
    1.3397    5.1504    0.3232 N   0  0  0  0  0  0  0  0  0  0  0  0
    1.3017    5.2181    1.6827 C   0  0  0  0  0  0  0  0  0  0  0  0
    1.9407    4.1095    2.1467 C   0  0  0  0  0  0  0  0  0  0  0  0
    0.7600    6.1537   -0.5829 C   0  0  0  0  0  0  0  0  0  0  0  0
   -0.4509    6.8255    0.0443 C   0  0  0  0  0  0  0  0  0  0  0  0
   -1.0565    7.8224   -0.9307 C   0  0  0  0  0  0  0  0  0  0  0  0
   -1.4302    7.1805   -2.1421 O   0  0  0  0  0  0  0  0  0  0  0  0
   -0.3343    6.5461   -2.7868 C   0  0  0  0  0  0  0  0  0  0  0  0
    0.3008    5.5048   -1.8792 C   0  0  0  0  0  0  0  0  0  0  0  0
   -0.5662   -0.5007    2.0497 C   0  0  0  0  0  0  0  0  0  0  0  0
   -1.2587   -1.7071    2.0433 C   0  0  0  0  0  0  0  0  0  0  0  0
   -2.3372   -2.0484    3.3656 S   0  0  0  0  0  0  0  0  0  0  0  0
   -2.8719   -0.8141    3.8796 O   0  0  0  0  0  0  0  0  0  0  0  0
   -3.4156   -2.8827    2.9024 O   0  0  0  0  0  0  0  0  0  0  0  0
   -1.4564   -2.8823    4.6408 N   0  0  0  0  0  0  0  0  0  0  0  0
   -0.7854   -1.8526    5.4641 C   0  0  0  0  0  0  0  0  0  0  0  0
    0.2888   -2.3235    6.4336 C   0  0  0  0  0  0  0  0  0  0  0  0
    1.5543   -2.8276    5.7574 C   0  0  0  0  0  0  0  0  0  0  0  0
    1.4965   -4.3191    5.4542 C   0  0  0  0  0  0  0  0  0  0  0  0
    0.1291   -4.8181    4.9899 C   0  0  0  0  0  0  0  0  0  0  0  0
   -0.5572   -3.8685    4.0181 C   0  0  0  0  0  0  0  0  0  0  0  0
   -1.5781   -4.4455    0.1490 H   0  0  0  0  0  0  0  0  0  0  0  0
   -1.5932   -4.4725    1.7817 H   0  0  0  0  0  0  0  0  0  0  0  0
   -2.8179   -3.7650    0.9654 H   0  0  0  0  0  0  0  0  0  0  0  0
   -0.0950   -2.9655   -0.7936 H   0  0  0  0  0  0  0  0  0  0  0  0
    1.1047   -0.8925   -0.7964 H   0  0  0  0  0  0  0  0  0  0  0  0
    0.5000    1.8660    1.0000 H   0  0  0  0  0  0  0  0  0  0  0  0
    4.0550    2.1865    1.0000 H   0  0  0  0  0  0  0  0  0  0  0  0
    0.8853    5.9417    2.2332 H   0  0  0  0  0  0  0  0  0  0  0  0
    2.0865    3.8520    3.1019 H   0  0  0  0  0  0  0  0  0  0  0  0
    1.4501    6.8474   -0.7894 H   0  0  0  0  0  0  0  0  0  0  0  0
   -0.1699    7.3046    0.8759 H   0  0  0  0  0  0  0  0  0  0  0  0
   -1.1327    6.1310    0.2740 H   0  0  0  0  0  0  0  0  0  0  0  0
   -1.8667    8.2361   -0.5155 H   0  0  0  0  0  0  0  0  0  0  0  0
   -0.3840    8.5348   -1.1312 H   0  0  0  0  0  0  0  0  0  0  0  0
    0.3503    7.2356   -3.0231 H   0  0  0  0  0  0  0  0  0  0  0  0
   -0.6590    6.0993   -3.6205 H   0  0  0  0  0  0  0  0  0  0  0  0
   -0.3698    4.7921   -1.6732 H   0  0  0  0  0  0  0  0  0  0  0  0
    1.0880    5.0978   -2.3426 H   0  0  0  0  0  0  0  0  0  0  0  0
   -0.6894    0.1505    2.7985 H   0  0  0  0  0  0  0  0  0  0  0  0
   -1.4915   -1.3898    6.0001 H   0  0  0  0  0  0  0  0  0  0  0  0
   -0.3596   -1.1987    4.8387 H   0  0  0  0  0  0  0  0  0  0  0  0
   -0.0898   -3.0662    6.9858 H   0  0  0  0  0  0  0  0  0  0  0  0
    0.5336   -1.5575    7.0280 H   0  0  0  0  0  0  0  0  0  0  0  0
    2.3323   -2.6525    6.3608 H   0  0  0  0  0  0  0  0  0  0  0  0
    1.6796   -2.3301    4.8990 H   0  0  0  0  0  0  0  0  0  0  0  0
    2.1624   -4.5177    4.7350 H   0  0  0  0  0  0  0  0  0  0  0  0
    1.7451   -4.8167    6.2853 H   0  0  0  0  0  0  0  0  0  0  0  0
    0.2499   -5.7022    4.5386 H   0  0  0  0  0  0  0  0  0  0  0  0
   -0.4573   -4.9306    5.7920 H   0  0  0  0  0  0  0  0  0  0  0  0
    0.1516   -3.3701    3.5189 H   0  0  0  0  0  0  0  0  0  0  0  0
   -1.0942   -4.4162    3.3766 H   0  0  0  0  0  0  0  0  0  0  0  0
  1  2  1  0  0  0  0
  2  3  2  0  0  0  0
  2 22  1  0  0  0  0
  3  4  1  0  0  0  0
  4  5  2  0  0  0  0
  5  6  1  0  0  0  0
  5 21  1  0  0  0  0
  6  7  1  0  0  0  0
  7  8  2  0  0  0  0
  7  9  1  0  0  0  0
  9 10  1  0  0  0  0
 10 11  2  0  0  0  0
 10 14  1  0  0  0  0
 11 12  1  0  0  0  0
 12 13  1  0  0  0  0
 12 15  1  0  0  0  0
 13 14  2  0  0  0  0
 15 16  1  0  0  0  0
 15 20  1  0  0  0  0
 16 17  1  0  0  0  0
 17 18  1  0  0  0  0
 18 19  1  0  0  0  0
 19 20  1  0  0  0  0
 21 22  2  0  0  0  0
 22 23  1  0  0  0  0
 23 24  2  0  0  0  0
 23 25  2  0  0  0  0
 23 26  1  0  0  0  0
 26 27  1  0  0  0  0
 26 32  1  0  0  0  0
 27 28  1  0  0  0  0
 28 29  1  0  0  0  0
 29 30  1  0  0  0  0
 30 31  1  0  0  0  0
 31 32  1  0  0  0  0
  1 33  1  0  0  0  0
  1 34  1  0  0  0  0
  1 35  1  0  0  0  0
  3 36  1  0  0  0  0
  4 37  1  0  0  0  0
  6 38  1  0  0  0  0
  9 39  1  0  0  0  0
 13 40  1  0  0  0  0
 14 41  1  0  0  0  0
 15 42  1  0  0  0  0
 16 43  1  0  0  0  0
 16 44  1  0  0  0  0
 17 45  1  0  0  0  0
 17 46  1  0  0  0  0
 19 47  1  0  0  0  0
 19 48  1  0  0  0  0
 20 49  1  0  0  0  0
 20 50  1  0  0  0  0
 21 51  1  0  0  0  0
 27 52  1  0  0  0  0
 27 53  1  0  0  0  0
 28 54  1  0  0  0  0
 28 55  1  0  0  0  0
 29 56  1  0  0  0  0
 29 57  1  0  0  0  0
 30 58  1  0  0  0  0
 30 59  1  0  0  0  0
 31 60  1  0  0  0  0
 31 61  1  0  0  0  0
 32 62  1  0  0  0  0
 32 63  1  0  0  0  0
M  END
$$$$
