
##########                                Name:       xtal-lig.mol2
##########                    Molecular_Weight:              322.35
##########                DOCK_Rotatable_Bonds:                   6
##########                       Formal_Charge:                   6
##########                     HBond_Acceptors:                   8
##########                        HBond_Donors:                   4
##########                         Heavy_Atoms:                  24
##########                            HA_RMSDs:               0.904
##########                            HA_RMSDh:               0.904
##########                            HA_RMSDm:               0.848
##########                          Grid_Score:          -59.422794
##########                     Grid_vdw_energy:          -38.511829
##########                      Grid_es_energy:          -20.910965
##########           Internal_energy_repulsive:           13.142481

@<TRIPOS>MOLECULE
xtal-lig.mol2
 40 43 1 0 0
SMALL
USER_CHARGES


@<TRIPOS>ATOM
      1 C1        -11.4584   -9.1398   61.4077 C.ar    1  <0>        -0.0584
      2 C2        -11.7093   -8.8969   62.7519 C.ar    1  <0>        -0.0615
      3 C3        -12.2732   -7.6893   63.1458 C.ar    1  <0>        -0.0617
      4 C4        -12.5843   -6.7258   62.1942 C.ar    1  <0>        -0.0615
      5 C5        -12.3366   -6.9694   60.8506 C.ar    1  <0>        -0.0584
      6 C6        -11.7779   -8.1780   60.4562 C.ar    1  <0>        -0.0414
      7 C7        -11.4908   -8.4401   58.9786 C.3     1  <0>         0.0315
      8 C8         -9.9976   -8.6886   58.7851 C.3     1  <0>         0.1554
      9 N1         -9.7225   -9.1727   57.4269 N.pl3   1  <0>        -0.0640
     10 C9         -9.2470   -8.2576   56.5889 C.2     1  <0>         0.9533
     11 N2         -8.9216   -8.5648   55.3229 N.1     1  <0>         0.2395
     12 N3         -9.0738   -7.0157   57.0697 N.1     1  <0>         0.2195
     13 C10        -8.5934   -6.0330   56.2999 C.2     1  <0>         0.7700
     14 N4         -8.4414   -4.8071   56.7957 N.pl3   1  <0>        -0.0974
     15 N5         -8.2527   -6.3180   54.9800 N.pl3   1  <0>         0.2113
     16 N6         -7.7974   -5.6254   54.0690 N.pl3   1  <0>        -0.0509
     17 C11        -8.4305   -7.6176   54.5077 C.2     1  <0>         0.9095
     18 N7         -8.0351   -7.6178   53.2402 N.1     1  <0>         0.1503
     19 C12        -7.6380   -6.3722   52.9745 C.2     1  <0>         0.5484
     20 C13        -7.1500   -5.9076   51.7601 C.2     1  <0>         0.2361
     21 C14        -6.7500   -6.6023   50.6999 C.2     1  <0>        -0.0108
     22 C15        -6.3626   -5.7369   49.7632 C.2     1  <0>        -0.0350
     23 C16        -6.5144   -4.4954   50.2234 C.2     1  <0>         0.0482
     24 O1         -7.0136   -4.5803   51.4939 O.3     1  <0>        -0.2997
     25 H1        -11.0151  -10.0758   61.1016 H       1  <0>         0.0620
     26 H2        -11.4663   -9.6461   63.4908 H       1  <0>         0.0618
     27 H3        -12.4696   -7.5000   64.1908 H       1  <0>         0.0618
     28 H4        -13.0195   -5.7860   62.5006 H       1  <0>         0.0618
     29 H5        -12.5781   -6.2193   60.1121 H       1  <0>         0.0620
     30 H6        -11.7965   -7.5657   58.3854 H       1  <0>         0.0375
     31 H7        -12.0552   -9.3241   58.6470 H       1  <0>         0.0375
     32 H8         -9.6627   -9.4447   59.5104 H       1  <0>         0.1027
     33 H9         -9.4530   -7.7468   58.9477 H       1  <0>         0.1027
     34 H10       -10.5820   -9.5143   57.0469 H       1  <0>         0.4523
     35 H11        -8.6867   -4.6184   57.7467 H       1  <0>         0.4540
     36 H12        -8.0819   -4.0748   56.2173 H       1  <0>         0.4540
     37 H13        -7.5802   -4.6517   54.1388 H       1  <0>         0.2593
     38 H14        -6.7407   -7.6787   50.6127 H       1  <0>         0.0655
     39 H15        -5.9855   -6.0001   48.7860 H       1  <0>         0.0638
     40 H16        -6.2844   -3.5855   49.6890 H       1  <0>         0.0890
@<TRIPOS>BOND
     1     1    25    1
     2     1     6   ar
     3     6     7    1
     4     7    31    1
     5     7    30    1
     6     7     8    1
     7     8    33    1
     8     8    32    1
     9     8     9    1
    10     9    34    1
    11     9    10    2
    12    10    12    2
    13    12    13    2
    14    13    15    2
    15    15    17    2
    16    17    18    2
    17    18    19    2
    18    19    20    1
    19    20    24    1
    20    23    24    1
    21    23    40    1
    22    22    23    2
    23    22    39    1
    24    21    22    1
    25    21    38    1
    26    20    21    2
    27    16    19    2
    28    16    37    1
    29    15    16    2
    30    11    17    2
    31    10    11    2
    32    13    14    2
    33    14    36    1
    34    14    35    1
    35     5     6   ar
    36     5    29    1
    37     4     5   ar
    38     4    28    1
    39     3     4   ar
    40     3    27    1
    41     2     3   ar
    42     2    26    1
    43     1     2   ar
@<TRIPOS>SUBSTRUCTURE
     1 <0>         1 TEMP              0 ****  ****    0 ROOT

