
##########                                Name:       xtal-lig.mol2
##########                    Molecular_Weight:              322.35
##########                DOCK_Rotatable_Bonds:                   6
##########                       Formal_Charge:                   6
##########                     HBond_Acceptors:                   8
##########                        HBond_Donors:                   4
##########                         Heavy_Atoms:                  24
##########                            HA_RMSDs:               0.976
##########                            HA_RMSDh:               0.976
##########                            HA_RMSDm:               0.922
##########                          Grid_Score:          -59.825844
##########                     Grid_vdw_energy:          -43.092762
##########                      Grid_es_energy:          -16.733084
##########           Internal_energy_repulsive:            8.592995

@<TRIPOS>MOLECULE
xtal-lig.mol2
 40 43 1 0 0
SMALL
USER_CHARGES


@<TRIPOS>ATOM
      1 C1        -12.2049   -9.7602   60.8528 C.ar    1  <0>        -0.0584
      2 C2        -12.5684   -9.6425   62.1881 C.ar    1  <0>        -0.0615
      3 C3        -12.6138   -8.3894   62.7874 C.ar    1  <0>        -0.0617
      4 C4        -12.2944   -7.2558   62.0502 C.ar    1  <0>        -0.0615
      5 C5        -11.9341   -7.3728   60.7151 C.ar    1  <0>        -0.0584
      6 C6        -11.8936   -8.6242   60.1145 C.ar    1  <0>        -0.0414
      7 C7        -11.4820   -8.7545   58.6489 C.3     1  <0>         0.0315
      8 C8        -10.1266   -9.4501   58.5595 C.3     1  <0>         0.1554
      9 N1         -9.8354   -9.8461   57.1763 N.pl3   1  <0>        -0.0640
     10 C9         -9.3402   -8.8822   56.4073 C.2     1  <0>         0.9533
     11 N2         -8.9988   -9.1082   55.1286 N.1     1  <0>         0.2395
     12 N3         -9.1642   -7.6763   56.9714 N.1     1  <0>         0.2195
     13 C10        -8.6645   -6.6494   56.2750 C.2     1  <0>         0.7700
     14 N4         -8.5100   -5.4602   56.8527 N.pl3   1  <0>        -0.0974
     15 N5         -8.3067   -6.8499   54.9441 N.pl3   1  <0>         0.2113
     16 N6         -7.8325   -6.1030   54.0873 N.pl3   1  <0>        -0.0509
     17 C11        -8.4880   -8.1139   54.3846 C.2     1  <0>         0.9095
     18 N7         -8.0740   -8.0342   53.1257 N.1     1  <0>         0.1503
     19 C12        -7.6631   -6.7775   52.9483 C.2     1  <0>         0.5484
     20 C13        -7.1535   -6.2383   51.7743 C.2     1  <0>         0.2361
     21 C14        -6.8010   -6.8601   50.6537 C.2     1  <0>        -0.0108
     22 C15        -6.3664   -5.9408   49.7922 C.2     1  <0>        -0.0350
     23 C16        -6.4408   -4.7375   50.3603 C.2     1  <0>         0.0482
     24 O1         -6.9383   -4.9033   51.6234 O.3     1  <0>        -0.2997
     25 H1        -12.1640  -10.7342   60.3881 H       1  <0>         0.0620
     26 H2        -12.8156  -10.5243   62.7604 H       1  <0>         0.0618
     27 H3        -12.8973   -8.2969   63.8254 H       1  <0>         0.0618
     28 H4        -12.3265   -6.2823   62.5169 H       1  <0>         0.0618
     29 H5        -11.6852   -6.4909   60.1435 H       1  <0>         0.0620
     30 H6        -11.4105   -7.7537   58.1982 H       1  <0>         0.0375
     31 H7        -12.2344   -9.3476   58.1085 H       1  <0>         0.0375
     32 H8        -10.1415  -10.3482   59.1944 H       1  <0>         0.1027
     33 H9         -9.3448   -8.7588   58.9071 H       1  <0>         0.1027
     34 H10       -10.6920  -10.1543   56.7624 H       1  <0>         0.4523
     35 H11        -8.7678   -5.3324   57.8105 H       1  <0>         0.4540
     36 H12        -8.1361   -4.6947   56.3291 H       1  <0>         0.4540
     37 H13        -7.6085   -5.1380   54.2243 H       1  <0>         0.2593
     38 H14        -6.8571   -7.9235   50.4730 H       1  <0>         0.0655
     39 H15        -6.0103   -6.1394   48.7921 H       1  <0>         0.0638
     40 H16        -6.1588   -3.7997   49.9049 H       1  <0>         0.0890
@<TRIPOS>BOND
     1     1    25    1
     2     1     6   ar
     3     6     7    1
     4     7    31    1
     5     7    30    1
     6     7     8    1
     7     8    33    1
     8     8    32    1
     9     8     9    1
    10     9    34    1
    11     9    10    2
    12    10    12    2
    13    12    13    2
    14    13    15    2
    15    15    17    2
    16    17    18    2
    17    18    19    2
    18    19    20    1
    19    20    24    1
    20    23    24    1
    21    23    40    1
    22    22    23    2
    23    22    39    1
    24    21    22    1
    25    21    38    1
    26    20    21    2
    27    16    19    2
    28    16    37    1
    29    15    16    2
    30    11    17    2
    31    10    11    2
    32    13    14    2
    33    14    36    1
    34    14    35    1
    35     5     6   ar
    36     5    29    1
    37     4     5   ar
    38     4    28    1
    39     3     4   ar
    40     3    27    1
    41     2     3   ar
    42     2    26    1
    43     1     2   ar
@<TRIPOS>SUBSTRUCTURE
     1 <0>         1 TEMP              0 ****  ****    0 ROOT

