
##########                                Name:       xtal-lig.mol2
##########                    Molecular_Weight:              322.35
##########                DOCK_Rotatable_Bonds:                   6
##########                       Formal_Charge:                   6
##########                     HBond_Acceptors:                   8
##########                        HBond_Donors:                   4
##########                         Heavy_Atoms:                  24
##########                            HA_RMSDs:               1.045
##########                            HA_RMSDh:               1.045
##########                            HA_RMSDm:               0.956
##########                          Grid_Score:          -59.631454
##########                     Grid_vdw_energy:          -39.183929
##########                      Grid_es_energy:          -20.447527
##########           Internal_energy_repulsive:           14.948721

@<TRIPOS>MOLECULE
xtal-lig.mol2
 40 43 1 0 0
SMALL
USER_CHARGES


@<TRIPOS>ATOM
      1 C1        -11.4628   -9.0978   61.5623 C.ar    1  <0>        -0.0584
      2 C2        -11.6913   -8.8711   62.9133 C.ar    1  <0>        -0.0615
      3 C3        -12.3757   -7.7321   63.3202 C.ar    1  <0>        -0.0617
      4 C4        -12.8295   -6.8205   62.3748 C.ar    1  <0>        -0.0615
      5 C5        -12.6040   -7.0483   61.0245 C.ar    1  <0>        -0.0584
      6 C6        -11.9248   -8.1890   60.6172 C.ar    1  <0>        -0.0414
      7 C7        -11.6629   -8.4320   59.1317 C.3     1  <0>         0.0315
      8 C8        -10.1790   -8.7143   58.9146 C.3     1  <0>         0.1554
      9 N1         -9.9393   -9.2236   57.5589 N.pl3   1  <0>        -0.0640
     10 C9         -9.4186   -8.3431   56.7108 C.2     1  <0>         0.9533
     11 N2         -9.1184   -8.6778   55.4456 N.1     1  <0>         0.2395
     12 N3         -9.1738   -7.1091   57.1805 N.1     1  <0>         0.2195
     13 C10        -8.6440   -6.1607   56.4000 C.2     1  <0>         0.7700
     14 N4         -8.4211   -4.9413   56.8850 N.pl3   1  <0>        -0.0974
     15 N5         -8.3276   -6.4746   55.0806 N.pl3   1  <0>         0.2113
     16 N6         -7.8398   -5.8156   54.1615 N.pl3   1  <0>        -0.0509
     17 C11        -8.5802   -7.7659   54.6200 C.2     1  <0>         0.9095
     18 N7         -8.1929   -7.7981   53.3504 N.1     1  <0>         0.1503
     19 C12        -7.7288   -6.5787   53.0723 C.2     1  <0>         0.5484
     20 C13        -7.2229   -6.1516   51.8515 C.2     1  <0>         0.2361
     21 C14        -6.7780   -6.8783   50.8314 C.2     1  <0>        -0.0108
     22 C15        -6.3903   -6.0421   49.8687 C.2     1  <0>        -0.0350
     23 C16        -6.5865   -4.7873   50.2724 C.2     1  <0>         0.0482
     24 O1         -7.1151   -4.8331   51.5330 O.3     1  <0>        -0.2997
     25 H1        -10.9262   -9.9800   61.2459 H       1  <0>         0.0620
     26 H2        -11.3374   -9.5798   63.6474 H       1  <0>         0.0618
     27 H3        -12.5546   -7.5555   64.3705 H       1  <0>         0.0618
     28 H4        -13.3584   -5.9337   62.6912 H       1  <0>         0.0618
     29 H5        -12.9566   -6.3386   60.2907 H       1  <0>         0.0620
     30 H6        -11.9538   -7.5398   58.5578 H       1  <0>         0.0375
     31 H7        -12.2536   -9.2955   58.7921 H       1  <0>         0.0375
     32 H8         -9.8463   -9.4668   59.6448 H       1  <0>         0.1027
     33 H9         -9.6122   -7.7819   59.0532 H       1  <0>         0.1027
     34 H10       -10.8188   -9.5199   57.1864 H       1  <0>         0.4523
     35 H11        -8.6500   -4.7317   57.8357 H       1  <0>         0.4540
     36 H12        -8.0249   -4.2347   56.2986 H       1  <0>         0.4540
     37 H13        -7.5684   -4.8550   54.2222 H       1  <0>         0.2593
     38 H14        -6.7378   -7.9568   50.7900 H       1  <0>         0.0655
     39 H15        -5.9818   -6.3351   48.9128 H       1  <0>         0.0638
     40 H16        -6.3675   -3.8943   49.7058 H       1  <0>         0.0890
@<TRIPOS>BOND
     1     1    25    1
     2     1     6   ar
     3     6     7    1
     4     7    31    1
     5     7    30    1
     6     7     8    1
     7     8    33    1
     8     8    32    1
     9     8     9    1
    10     9    34    1
    11     9    10    2
    12    10    12    2
    13    12    13    2
    14    13    15    2
    15    15    17    2
    16    17    18    2
    17    18    19    2
    18    19    20    1
    19    20    24    1
    20    23    24    1
    21    23    40    1
    22    22    23    2
    23    22    39    1
    24    21    22    1
    25    21    38    1
    26    20    21    2
    27    16    19    2
    28    16    37    1
    29    15    16    2
    30    11    17    2
    31    10    11    2
    32    13    14    2
    33    14    36    1
    34    14    35    1
    35     5     6   ar
    36     5    29    1
    37     4     5   ar
    38     4    28    1
    39     3     4   ar
    40     3    27    1
    41     2     3   ar
    42     2    26    1
    43     1     2   ar
@<TRIPOS>SUBSTRUCTURE
     1 <0>         1 TEMP              0 ****  ****    0 ROOT

