
##########                                Name:       xtal-lig.mol2
##########                    Molecular_Weight:              322.35
##########                DOCK_Rotatable_Bonds:                   6
##########                       Formal_Charge:                   6
##########                     HBond_Acceptors:                   8
##########                        HBond_Donors:                   4
##########                         Heavy_Atoms:                  24
##########                            HA_RMSDs:               2.092
##########                            HA_RMSDh:               2.092
##########                            HA_RMSDm:               1.561
##########                          Grid_Score:          -59.495789
##########                     Grid_vdw_energy:          -42.806469
##########                      Grid_es_energy:          -16.689318
##########           Internal_energy_repulsive:           18.669472

@<TRIPOS>MOLECULE
xtal-lig.mol2
 40 43 1 0 0
SMALL
USER_CHARGES


@<TRIPOS>ATOM
      1 C1        -11.2846   -7.3997   62.3234 C.ar    1  <0>        -0.0584
      2 C2        -11.4369   -6.5263   63.3924 C.ar    1  <0>        -0.0615
      3 C3        -12.4895   -5.6189   63.4032 C.ar    1  <0>        -0.0617
      4 C4        -13.3878   -5.5858   62.3437 C.ar    1  <0>        -0.0615
      5 C5        -13.2378   -6.4606   61.2768 C.ar    1  <0>        -0.0584
      6 C6        -12.1891   -7.3709   61.2681 C.ar    1  <0>        -0.0414
      7 C7        -12.0149   -8.3234   60.0863 C.3     1  <0>         0.0315
      8 C8        -10.5316   -8.4579   59.7536 C.3     1  <0>         0.1554
      9 N1        -10.3380   -9.3133   58.5765 N.pl3   1  <0>        -0.0640
     10 C9         -9.8261   -8.7010   57.5140 C.2     1  <0>         0.9533
     11 N2         -9.5665   -9.3656   56.3765 N.1     1  <0>         0.2395
     12 N3         -9.5477   -7.3928   57.6342 N.1     1  <0>         0.2195
     13 C10        -9.0237   -6.6975   56.6188 C.2     1  <0>         0.7700
     14 N4         -8.7670   -5.3988   56.7580 N.pl3   1  <0>        -0.0974
     15 N5         -8.7490   -7.3567   55.4231 N.pl3   1  <0>         0.2113
     16 N6         -8.2758   -6.9761   54.3516 N.pl3   1  <0>        -0.0509
     17 C11        -9.0359   -8.7176   55.3270 C.2     1  <0>         0.9095
     18 N7         -8.6844   -9.0936   54.1032 N.1     1  <0>         0.1503
     19 C12        -8.2076   -8.0026   53.5016 C.2     1  <0>         0.5484
     20 C13        -7.7284   -7.9257   52.2003 C.2     1  <0>         0.2361
     21 C14        -7.7336   -8.8570   51.2519 C.2     1  <0>        -0.0108
     22 C15        -7.1698   -8.3372   50.1619 C.2     1  <0>        -0.0350
     23 C16        -6.8060   -7.0800   50.4132 C.2     1  <0>         0.0482
     24 O1         -7.1512   -6.7971   51.7060 O.3     1  <0>        -0.2997
     25 H1        -10.4637   -8.1013   62.3119 H       1  <0>         0.0620
     26 H2        -10.7376   -6.5522   64.2150 H       1  <0>         0.0618
     27 H3        -12.6091   -4.9400   64.2346 H       1  <0>         0.0618
     28 H4        -14.2039   -4.8785   62.3505 H       1  <0>         0.0618
     29 H5        -13.9363   -6.4333   60.4535 H       1  <0>         0.0620
     30 H6        -12.5515   -7.9250   59.2126 H       1  <0>         0.0375
     31 H7        -12.4225   -9.3108   60.3485 H       1  <0>         0.0375
     32 H8        -10.0104   -8.9058   60.6125 H       1  <0>         0.1027
     33 H9        -10.1189   -7.4601   59.5440 H       1  <0>         0.1027
     34 H10       -11.2322   -9.6768   58.3154 H       1  <0>         0.4523
     35 H11        -8.9660   -4.9399   57.6239 H       1  <0>         0.4540
     36 H12        -8.3752   -4.8822   55.9967 H       1  <0>         0.4540
     37 H13        -7.9866   -6.0403   54.1495 H       1  <0>         0.2593
     38 H14        -8.1258   -9.8587   51.3479 H       1  <0>         0.0655
     39 H15        -7.0298   -8.8532   49.2234 H       1  <0>         0.0638
     40 H16        -6.3250   -6.4055   49.7203 H       1  <0>         0.0890
@<TRIPOS>BOND
     1     1    25    1
     2     1     6   ar
     3     6     7    1
     4     7    31    1
     5     7    30    1
     6     7     8    1
     7     8    33    1
     8     8    32    1
     9     8     9    1
    10     9    34    1
    11     9    10    2
    12    10    12    2
    13    12    13    2
    14    13    15    2
    15    15    17    2
    16    17    18    2
    17    18    19    2
    18    19    20    1
    19    20    24    1
    20    23    24    1
    21    23    40    1
    22    22    23    2
    23    22    39    1
    24    21    22    1
    25    21    38    1
    26    20    21    2
    27    16    19    2
    28    16    37    1
    29    15    16    2
    30    11    17    2
    31    10    11    2
    32    13    14    2
    33    14    36    1
    34    14    35    1
    35     5     6   ar
    36     5    29    1
    37     4     5   ar
    38     4    28    1
    39     3     4   ar
    40     3    27    1
    41     2     3   ar
    42     2    26    1
    43     1     2   ar
@<TRIPOS>SUBSTRUCTURE
     1 <0>         1 TEMP              0 ****  ****    0 ROOT

