
##########                                Name:       xtal-lig.mol2
##########                    Molecular_Weight:              322.35
##########                DOCK_Rotatable_Bonds:                   6
##########                       Formal_Charge:                   6
##########                     HBond_Acceptors:                   8
##########                        HBond_Donors:                   4
##########                         Heavy_Atoms:                  24
##########                            HA_RMSDs:               2.205
##########                            HA_RMSDh:               2.203
##########                            HA_RMSDm:               1.656
##########                          Grid_Score:          -60.679008
##########                     Grid_vdw_energy:          -43.938175
##########                      Grid_es_energy:          -16.740833
##########           Internal_energy_repulsive:            5.910256

@<TRIPOS>MOLECULE
xtal-lig.mol2
 40 43 1 0 0
SMALL
USER_CHARGES


@<TRIPOS>ATOM
      1 C1         -9.9506   -8.8838   62.3321 C.ar    1  <0>        -0.0584
      2 C2         -9.5045   -8.7187   63.6370 C.ar    1  <0>        -0.0615
      3 C3        -10.1904   -7.8764   64.5039 C.ar    1  <0>        -0.0617
      4 C4        -11.3212   -7.1996   64.0638 C.ar    1  <0>        -0.0615
      5 C5        -11.7691   -7.3667   62.7609 C.ar    1  <0>        -0.0584
      6 C6        -11.0869   -8.2123   61.8959 C.ar    1  <0>        -0.0414
      7 C7        -11.5710   -8.3844   60.4570 C.3     1  <0>         0.0315
      8 C8        -10.5090   -7.8592   59.4951 C.3     1  <0>         0.1554
      9 N1        -10.3117   -8.7916   58.3786 N.pl3   1  <0>        -0.0640
     10 C9         -9.7594   -8.2606   57.2929 C.2     1  <0>         0.9533
     11 N2         -9.4919   -9.0017   56.2057 N.1     1  <0>         0.2395
     12 N3         -9.4485   -6.9550   57.3383 N.1     1  <0>         0.2195
     13 C10        -8.8828   -6.3385   56.2947 C.2     1  <0>         0.7700
     14 N4         -8.5944   -5.0406   56.3591 N.pl3   1  <0>        -0.0974
     15 N5         -8.5989   -7.0783   55.1494 N.pl3   1  <0>         0.2113
     16 N6         -8.0912   -6.7780   54.0682 N.pl3   1  <0>        -0.0509
     17 C11        -8.9202   -8.4347   55.1312 C.2     1  <0>         0.9095
     18 N7         -8.5512   -8.8958   53.9421 N.1     1  <0>         0.1503
     19 C12        -8.0314   -7.8573   53.2856 C.2     1  <0>         0.5484
     20 C13        -7.5208   -7.8746   51.9942 C.2     1  <0>         0.2361
     21 C14        -7.9465   -8.5582   50.9368 C.2     1  <0>        -0.0108
     22 C15        -7.1516   -8.2628   49.9086 C.2     1  <0>        -0.0350
     23 C16        -6.2225   -7.3948   50.3078 C.2     1  <0>         0.0482
     24 O1         -6.4378   -7.1343   51.6331 O.3     1  <0>        -0.2997
     25 H1         -9.4148   -9.5340   61.6564 H       1  <0>         0.0620
     26 H2         -8.6249   -9.2446   63.9778 H       1  <0>         0.0618
     27 H3         -9.8447   -7.7482   65.5190 H       1  <0>         0.0618
     28 H4        -11.8523   -6.5425   64.7365 H       1  <0>         0.0618
     29 H5        -12.6477   -6.8394   62.4199 H       1  <0>         0.0620
     30 H6        -12.5048   -7.8208   60.3148 H       1  <0>         0.0375
     31 H7        -11.7517   -9.4507   60.2564 H       1  <0>         0.0375
     32 H8         -9.5593   -7.7430   60.0378 H       1  <0>         0.1027
     33 H9        -10.8344   -6.8867   59.0974 H       1  <0>         0.1027
     34 H10       -11.2093   -9.1478   58.1188 H       1  <0>         0.4523
     35 H11        -8.8006   -4.5232   57.1896 H       1  <0>         0.4540
     36 H12        -8.1715   -4.5830   55.5769 H       1  <0>         0.4540
     37 H13        -7.7723   -5.8645   53.8154 H       1  <0>         0.2593
     38 H14        -8.7885   -9.2341   50.9147 H       1  <0>         0.0655
     39 H15        -7.2456   -8.6634   48.9100 H       1  <0>         0.0638
     40 H16        -5.4399   -6.9727   49.6948 H       1  <0>         0.0890
@<TRIPOS>BOND
     1     1    25    1
     2     1     6   ar
     3     6     7    1
     4     7    31    1
     5     7    30    1
     6     7     8    1
     7     8    33    1
     8     8    32    1
     9     8     9    1
    10     9    34    1
    11     9    10    2
    12    10    12    2
    13    12    13    2
    14    13    15    2
    15    15    17    2
    16    17    18    2
    17    18    19    2
    18    19    20    1
    19    20    24    1
    20    23    24    1
    21    23    40    1
    22    22    23    2
    23    22    39    1
    24    21    22    1
    25    21    38    1
    26    20    21    2
    27    16    19    2
    28    16    37    1
    29    15    16    2
    30    11    17    2
    31    10    11    2
    32    13    14    2
    33    14    36    1
    34    14    35    1
    35     5     6   ar
    36     5    29    1
    37     4     5   ar
    38     4    28    1
    39     3     4   ar
    40     3    27    1
    41     2     3   ar
    42     2    26    1
    43     1     2   ar
@<TRIPOS>SUBSTRUCTURE
     1 <0>         1 TEMP              0 ****  ****    0 ROOT

