
##########                                Name:       xtal-lig.mol2
##########                    Molecular_Weight:              322.35
##########                DOCK_Rotatable_Bonds:                   6
##########                       Formal_Charge:                   6
##########                     HBond_Acceptors:                   8
##########                        HBond_Donors:                   4
##########                         Heavy_Atoms:                  24
##########                            HA_RMSDs:               1.189
##########                            HA_RMSDh:               1.189
##########                            HA_RMSDm:               0.993
##########                          Grid_Score:          -63.984268
##########                     Grid_vdw_energy:          -44.516731
##########                      Grid_es_energy:          -19.467539
##########           Internal_energy_repulsive:            4.077689

@<TRIPOS>MOLECULE
xtal-lig.mol2
 40 43 1 0 0
SMALL
USER_CHARGES


@<TRIPOS>ATOM
      1 C1        -10.4615   -9.0338   61.9086 C.ar    1  <0>        -0.0584
      2 C2        -10.4106   -8.6012   63.2275 C.ar    1  <0>        -0.0615
      3 C3        -11.2791   -7.6092   63.6667 C.ar    1  <0>        -0.0617
      4 C4        -12.1966   -7.0503   62.7855 C.ar    1  <0>        -0.0615
      5 C5        -12.2497   -7.4844   61.4685 C.ar    1  <0>        -0.0584
      6 C6        -11.3856   -8.4794   61.0305 C.ar    1  <0>        -0.0414
      7 C7        -11.4335   -8.9464   59.5766 C.3     1  <0>         0.0315
      8 C8        -10.4773   -8.1031   58.7379 C.3     1  <0>         0.1554
      9 N1        -10.1722   -8.7715   57.4671 N.pl3   1  <0>        -0.0640
     10 C9         -9.5834   -8.0050   56.5553 C.2     1  <0>         0.9533
     11 N2         -9.2190   -8.4904   55.3576 N.1     1  <0>         0.2395
     12 N3         -9.3372   -6.7287   56.8926 N.1     1  <0>         0.2195
     13 C10        -8.7415   -5.8871   56.0405 C.2     1  <0>         0.7700
     14 N4         -8.5184   -4.6231   56.3933 N.pl3   1  <0>        -0.0974
     15 N5         -8.3573   -6.3584   54.7876 N.pl3   1  <0>         0.2113
     16 N6         -7.8025   -5.8197   53.8290 N.pl3   1  <0>        -0.0509
     17 C11        -8.6132   -7.6904   54.4655 C.2     1  <0>         0.9095
     18 N7         -8.1546   -7.8774   53.2336 N.1     1  <0>         0.1503
     19 C12        -7.6470   -6.7068   52.8442 C.2     1  <0>         0.5484
     20 C13        -7.0621   -6.4338   51.6145 C.2     1  <0>         0.2361
     21 C14        -6.5977   -7.2831   50.7036 C.2     1  <0>        -0.0108
     22 C15        -6.1263   -6.5715   49.6800 C.2     1  <0>        -0.0350
     23 C16        -6.2887   -5.2738   49.9364 C.2     1  <0>         0.0482
     24 O1         -6.8819   -5.1627   51.1638 O.3     1  <0>        -0.2997
     25 H1         -9.7831   -9.8008   61.5653 H       1  <0>         0.0620
     26 H2         -9.6966   -9.0357   63.9113 H       1  <0>         0.0618
     27 H3        -11.2409   -7.2729   64.6923 H       1  <0>         0.0618
     28 H4        -12.8692   -6.2770   63.1261 H       1  <0>         0.0618
     29 H5        -12.9628   -7.0486   60.7844 H       1  <0>         0.0620
     30 H6        -12.4569   -8.8340   59.1893 H       1  <0>         0.0375
     31 H7        -11.1343  -10.0035   59.5213 H       1  <0>         0.0375
     32 H8         -9.5429   -7.9551   59.2991 H       1  <0>         0.1027
     33 H9        -10.9462   -7.1304   58.5283 H       1  <0>         0.1027
     34 H10       -11.0356   -9.0948   57.0796 H       1  <0>         0.4523
     35 H11        -8.7964   -4.3000   57.2979 H       1  <0>         0.4540
     36 H12        -8.0729   -3.9967   55.7537 H       1  <0>         0.4540
     37 H13        -7.5127   -4.8632   53.7941 H       1  <0>         0.2593
     38 H14        -6.6018   -8.3604   50.7795 H       1  <0>         0.0655
     39 H15        -5.6829   -6.9815   48.7846 H       1  <0>         0.0638
     40 H16        -6.0032   -4.4564   49.2908 H       1  <0>         0.0890
@<TRIPOS>BOND
     1     1    25    1
     2     1     6   ar
     3     6     7    1
     4     7    31    1
     5     7    30    1
     6     7     8    1
     7     8    33    1
     8     8    32    1
     9     8     9    1
    10     9    34    1
    11     9    10    2
    12    10    12    2
    13    12    13    2
    14    13    15    2
    15    15    17    2
    16    17    18    2
    17    18    19    2
    18    19    20    1
    19    20    24    1
    20    23    24    1
    21    23    40    1
    22    22    23    2
    23    22    39    1
    24    21    22    1
    25    21    38    1
    26    20    21    2
    27    16    19    2
    28    16    37    1
    29    15    16    2
    30    11    17    2
    31    10    11    2
    32    13    14    2
    33    14    36    1
    34    14    35    1
    35     5     6   ar
    36     5    29    1
    37     4     5   ar
    38     4    28    1
    39     3     4   ar
    40     3    27    1
    41     2     3   ar
    42     2    26    1
    43     1     2   ar
@<TRIPOS>SUBSTRUCTURE
     1 <0>         1 TEMP              0 ****  ****    0 ROOT

