
##########                                Name:       xtal-lig.mol2
##########                    Molecular_Weight:              322.35
##########                DOCK_Rotatable_Bonds:                   6
##########                       Formal_Charge:                   6
##########                     HBond_Acceptors:                   8
##########                        HBond_Donors:                   4
##########                         Heavy_Atoms:                  24
##########                            HA_RMSDs:              12.538
##########                            HA_RMSDh:              12.337
##########                            HA_RMSDm:              11.490
##########                          Grid_Score:          -63.381104
##########                     Grid_vdw_energy:          -26.585754
##########                      Grid_es_energy:          -36.795349
##########           Internal_energy_repulsive:            7.378074

@<TRIPOS>MOLECULE
xtal-lig.mol2
 40 43 1 0 0
SMALL
USER_CHARGES


@<TRIPOS>ATOM
      1 C1         -2.8649    0.9137   65.3285 C.ar    1  <0>        -0.0584
      2 C2         -1.8448    0.9053   64.3861 C.ar    1  <0>        -0.0615
      3 C3         -2.1176    1.2375   63.0645 C.ar    1  <0>        -0.0617
      4 C4         -3.4112    1.5766   62.6872 C.ar    1  <0>        -0.0615
      5 C5         -4.4302    1.5881   63.6292 C.ar    1  <0>        -0.0584
      6 C6         -4.1569    1.2613   64.9510 C.ar    1  <0>        -0.0414
      7 C7         -5.2817    1.2589   65.9850 C.3     1  <0>         0.0315
      8 C8         -5.6606   -0.1801   66.3235 C.3     1  <0>         0.1554
      9 N1         -6.9249   -0.5512   65.6763 N.pl3   1  <0>        -0.0640
     10 C9         -7.0598   -1.8450   65.4051 C.2     1  <0>         0.9533
     11 N2         -8.1766   -2.3327   64.8415 N.1     1  <0>         0.2395
     12 N3         -6.0436   -2.6532   65.7479 N.1     1  <0>         0.2195
     13 C10        -6.0955   -3.9702   65.5197 C.2     1  <0>         0.7700
     14 N4         -5.0709   -4.7496   65.8578 N.pl3   1  <0>        -0.0974
     15 N5         -7.2378   -4.5061   64.9302 N.pl3   1  <0>         0.2113
     16 N6         -7.5517   -5.6545   64.6144 N.pl3   1  <0>        -0.0509
     17 C11        -8.2840   -3.6481   64.5944 C.2     1  <0>         0.9095
     18 N7         -9.2352   -4.4024   64.0568 N.1     1  <0>         0.1503
     19 C12        -8.7728   -5.6536   64.0758 C.2     1  <0>         0.5484
     20 C13        -9.4335   -6.7803   63.6038 C.2     1  <0>         0.2361
     21 C14       -10.4893   -6.8540   62.7999 C.2     1  <0>        -0.0108
     22 C15       -10.7774   -8.1422   62.6159 C.2     1  <0>        -0.0350
     23 C16        -9.9095   -8.8876   63.2994 C.2     1  <0>         0.0482
     24 O1         -9.0450   -8.0410   63.9372 O.3     1  <0>        -0.2997
     25 H1         -2.6546    0.6503   66.3545 H       1  <0>         0.0620
     26 H2         -0.8398    0.6407   64.6802 H       1  <0>         0.0618
     27 H3         -1.3247    1.2321   62.3312 H       1  <0>         0.0618
     28 H4         -3.6238    1.8316   61.6595 H       1  <0>         0.0618
     29 H5         -5.4353    1.8511   63.3345 H       1  <0>         0.0620
     30 H6         -6.1581    1.7814   65.5740 H       1  <0>         0.0375
     31 H7         -4.9424    1.7724   66.8966 H       1  <0>         0.0375
     32 H8         -5.7742   -0.2744   67.4135 H       1  <0>         0.1027
     33 H9         -4.8656   -0.8532   65.9703 H       1  <0>         0.1027
     34 H10        -6.9804   -0.0526   64.8112 H       1  <0>         0.4523
     35 H11        -4.2587   -4.3510   66.2839 H       1  <0>         0.4540
     36 H12        -5.1131   -5.7338   65.6857 H       1  <0>         0.4540
     37 H13        -6.9788   -6.4642   64.7421 H       1  <0>         0.2593
     38 H14       -11.0205   -6.0170   62.3712 H       1  <0>         0.0655
     39 H15       -11.5860   -8.5218   62.0090 H       1  <0>         0.0638
     40 H16        -9.8919   -9.9666   63.3421 H       1  <0>         0.0890
@<TRIPOS>BOND
     1     1    25    1
     2     1     6   ar
     3     6     7    1
     4     7    31    1
     5     7    30    1
     6     7     8    1
     7     8    33    1
     8     8    32    1
     9     8     9    1
    10     9    34    1
    11     9    10    2
    12    10    12    2
    13    12    13    2
    14    13    15    2
    15    15    17    2
    16    17    18    2
    17    18    19    2
    18    19    20    1
    19    20    24    1
    20    23    24    1
    21    23    40    1
    22    22    23    2
    23    22    39    1
    24    21    22    1
    25    21    38    1
    26    20    21    2
    27    16    19    2
    28    16    37    1
    29    15    16    2
    30    11    17    2
    31    10    11    2
    32    13    14    2
    33    14    36    1
    34    14    35    1
    35     5     6   ar
    36     5    29    1
    37     4     5   ar
    38     4    28    1
    39     3     4   ar
    40     3    27    1
    41     2     3   ar
    42     2    26    1
    43     1     2   ar
@<TRIPOS>SUBSTRUCTURE
     1 <0>         1 TEMP              0 ****  ****    0 ROOT

