
##########                                Name:       xtal-lig.mol2
##########                    Molecular_Weight:              322.35
##########                DOCK_Rotatable_Bonds:                   6
##########                       Formal_Charge:                   6
##########                     HBond_Acceptors:                   8
##########                        HBond_Donors:                   4
##########                         Heavy_Atoms:                  24
##########                            HA_RMSDs:               0.710
##########                            HA_RMSDh:               0.710
##########                            HA_RMSDm:               0.649
##########                          Grid_Score:          -57.363167
##########                     Grid_vdw_energy:          -41.676739
##########                      Grid_es_energy:          -15.686429
##########           Internal_energy_repulsive:            8.521424

@<TRIPOS>MOLECULE
xtal-lig.mol2
 40 43 1 0 0
SMALL
USER_CHARGES


@<TRIPOS>ATOM
      1 C1        -12.0462   -9.2316   60.4938 C.ar    1  <0>        -0.0584
      2 C2        -12.4893   -9.2788   61.8093 C.ar    1  <0>        -0.0615
      3 C3        -12.5283   -8.1171   62.5709 C.ar    1  <0>        -0.0617
      4 C4        -12.1229   -6.9096   62.0157 C.ar    1  <0>        -0.0615
      5 C5        -11.6830   -6.8614   60.7004 C.ar    1  <0>        -0.0584
      6 C6        -11.6488   -8.0213   59.9374 C.ar    1  <0>        -0.0414
      7 C7        -11.1499   -7.9710   58.4942 C.3     1  <0>         0.0315
      8 C8         -9.7933   -8.6634   58.3988 C.3     1  <0>         0.1554
      9 N1         -9.5634   -9.1726   57.0413 N.pl3   1  <0>        -0.0640
     10 C9         -9.0309   -8.2977   56.1948 C.2     1  <0>         0.9533
     11 N2         -8.7377   -8.6335   54.9282 N.1     1  <0>         0.2395
     12 N3         -8.7668   -7.0687   56.6674 N.1     1  <0>         0.2195
     13 C10        -8.2240   -6.1263   55.8886 C.2     1  <0>         0.7700
     14 N4         -7.9821   -4.9117   56.3765 N.pl3   1  <0>        -0.0974
     15 N5         -7.9144   -6.4414   54.5679 N.pl3   1  <0>         0.2113
     16 N6         -7.4183   -5.7873   53.6497 N.pl3   1  <0>        -0.0509
     17 C11        -8.1871   -7.7275   54.1042 C.2     1  <0>         0.9095
     18 N7         -7.8024   -7.7621   52.8339 N.1     1  <0>         0.1503
     19 C12        -7.3204   -6.5491   52.5583 C.2     1  <0>         0.5484
     20 C13        -6.8101   -6.1262   51.3378 C.2     1  <0>         0.2361
     21 C14        -6.1541   -6.8274   50.4188 C.2     1  <0>        -0.0108
     22 C15        -5.8585   -6.0083   49.4099 C.2     1  <0>        -0.0350
     23 C16        -6.3233   -4.7897   49.6836 C.2     1  <0>         0.0482
     24 O1         -6.9322   -4.8413   50.9073 O.3     1  <0>        -0.2997
     25 H1        -12.0104  -10.1351   59.9032 H       1  <0>         0.0620
     26 H2        -12.8034  -10.2180   62.2401 H       1  <0>         0.0618
     27 H3        -12.8736   -8.1527   63.5936 H       1  <0>         0.0618
     28 H4        -12.1501   -6.0073   62.6087 H       1  <0>         0.0618
     29 H5        -11.3674   -5.9224   60.2704 H       1  <0>         0.0620
     30 H6        -11.0490   -6.9224   58.1778 H       1  <0>         0.0375
     31 H7        -11.8698   -8.4842   57.8397 H       1  <0>         0.0375
     32 H8         -9.7693   -9.5050   59.1067 H       1  <0>         0.1027
     33 H9         -9.0030   -7.9406   58.6497 H       1  <0>         0.1027
     34 H10       -10.4478   -9.4546   56.6695 H       1  <0>         0.4523
     35 H11        -8.2062   -4.7013   57.3281 H       1  <0>         0.4540
     36 H12        -7.5762   -4.2096   55.7914 H       1  <0>         0.4540
     37 H13        -7.1324   -4.8311   53.7126 H       1  <0>         0.2593
     38 H14        -5.9046   -7.8765   50.4790 H       1  <0>         0.0655
     39 H15        -5.3264   -6.2879   48.5125 H       1  <0>         0.0638
     40 H16        -6.2351   -3.9178   49.0525 H       1  <0>         0.0890
@<TRIPOS>BOND
     1     1    25    1
     2     1     6   ar
     3     6     7    1
     4     7    31    1
     5     7    30    1
     6     7     8    1
     7     8    33    1
     8     8    32    1
     9     8     9    1
    10     9    34    1
    11     9    10    2
    12    10    12    2
    13    12    13    2
    14    13    15    2
    15    15    17    2
    16    17    18    2
    17    18    19    2
    18    19    20    1
    19    20    24    1
    20    23    24    1
    21    23    40    1
    22    22    23    2
    23    22    39    1
    24    21    22    1
    25    21    38    1
    26    20    21    2
    27    16    19    2
    28    16    37    1
    29    15    16    2
    30    11    17    2
    31    10    11    2
    32    13    14    2
    33    14    36    1
    34    14    35    1
    35     5     6   ar
    36     5    29    1
    37     4     5   ar
    38     4    28    1
    39     3     4   ar
    40     3    27    1
    41     2     3   ar
    42     2    26    1
    43     1     2   ar
@<TRIPOS>SUBSTRUCTURE
     1 <0>         1 TEMP              0 ****  ****    0 ROOT

