
##########                                Name:       xtal-lig.mol2
##########                    Molecular_Weight:              322.35
##########                DOCK_Rotatable_Bonds:                   6
##########                       Formal_Charge:                   6
##########                     HBond_Acceptors:                   8
##########                        HBond_Donors:                   4
##########                         Heavy_Atoms:                  24
##########                            HA_RMSDs:               1.093
##########                            HA_RMSDh:               1.093
##########                            HA_RMSDm:               0.932
##########                          Grid_Score:          -60.578354
##########                     Grid_vdw_energy:          -44.386906
##########                      Grid_es_energy:          -16.191450
##########           Internal_energy_repulsive:           13.534915

@<TRIPOS>MOLECULE
xtal-lig.mol2
 40 43 1 0 0
SMALL
USER_CHARGES


@<TRIPOS>ATOM
      1 C1        -11.6301  -10.5086   60.4449 C.ar    1  <0>        -0.0584
      2 C2        -11.9574  -10.7478   61.7733 C.ar    1  <0>        -0.0615
      3 C3        -12.4294   -9.7112   62.5695 C.ar    1  <0>        -0.0617
      4 C4        -12.5723   -8.4362   62.0360 C.ar    1  <0>        -0.0615
      5 C5        -12.2483   -8.1975   60.7078 C.ar    1  <0>        -0.0584
      6 C6        -11.7815   -9.2343   59.9104 C.ar    1  <0>        -0.0414
      7 C7        -11.4102   -8.9681   58.4525 C.3     1  <0>         0.0315
      8 C8         -9.8967   -9.0684   58.2849 C.3     1  <0>         0.1554
      9 N1         -9.5515   -9.5091   56.9279 N.pl3   1  <0>        -0.0640
     10 C9         -9.0990   -8.5529   56.1237 C.2     1  <0>         0.9533
     11 N2         -8.7164   -8.8161   54.8639 N.1     1  <0>         0.2395
     12 N3         -9.0090   -7.3137   56.6334 N.1     1  <0>         0.2195
     13 C10        -8.5573   -6.2911   55.8989 C.2     1  <0>         0.7700
     14 N4         -8.4880   -5.0694   56.4226 N.pl3   1  <0>        -0.0974
     15 N5         -8.1588   -6.5303   54.5861 N.pl3   1  <0>         0.2113
     16 N6         -7.7120   -5.7958   53.7042 N.pl3   1  <0>        -0.0509
     17 C11        -8.2507   -7.8275   54.0837 C.2     1  <0>         0.9095
     18 N7         -7.8146   -7.7805   52.8306 N.1     1  <0>         0.1503
     19 C12        -7.4769   -6.5103   52.6018 C.2     1  <0>         0.5484
     20 C13        -6.9753   -5.9954   51.4135 C.2     1  <0>         0.2361
     21 C14        -6.4059   -6.6384   50.3991 C.2     1  <0>        -0.0108
     22 C15        -6.0805   -5.7380   49.4719 C.2     1  <0>        -0.0350
     23 C16        -6.4403   -4.5257   49.8926 C.2     1  <0>         0.0482
     24 O1         -7.0112   -4.6657   51.1275 O.3     1  <0>        -0.2997
     25 H1        -11.2581  -11.3125   59.8272 H       1  <0>         0.0620
     26 H2        -11.8451  -11.7389   62.1873 H       1  <0>         0.0618
     27 H3        -12.6850   -9.8965   63.6024 H       1  <0>         0.0618
     28 H4        -12.9359   -7.6300   62.6557 H       1  <0>         0.0618
     29 H5        -12.3591   -7.2059   60.2946 H       1  <0>         0.0620
     30 H6        -11.7442   -7.9595   58.1677 H       1  <0>         0.0375
     31 H7        -11.9001   -9.7127   57.8079 H       1  <0>         0.0375
     32 H8         -9.5028   -9.7962   59.0097 H       1  <0>         0.1027
     33 H9         -9.4492   -8.0801   58.4661 H       1  <0>         0.1027
     34 H10       -10.3785   -9.8882   56.5127 H       1  <0>         0.4523
     35 H11        -8.7741   -4.9136   57.3681 H       1  <0>         0.4540
     36 H12        -8.1499   -4.3072   55.8705 H       1  <0>         0.4540
     37 H13        -7.5501   -4.8136   53.7996 H       1  <0>         0.2593
     38 H14        -6.2367   -7.7033   50.3371 H       1  <0>         0.0655
     39 H15        -5.6012   -5.9562   48.5290 H       1  <0>         0.0638
     40 H16        -6.3053   -3.5989   49.3548 H       1  <0>         0.0890
@<TRIPOS>BOND
     1     1    25    1
     2     1     6   ar
     3     6     7    1
     4     7    31    1
     5     7    30    1
     6     7     8    1
     7     8    33    1
     8     8    32    1
     9     8     9    1
    10     9    34    1
    11     9    10    2
    12    10    12    2
    13    12    13    2
    14    13    15    2
    15    15    17    2
    16    17    18    2
    17    18    19    2
    18    19    20    1
    19    20    24    1
    20    23    24    1
    21    23    40    1
    22    22    23    2
    23    22    39    1
    24    21    22    1
    25    21    38    1
    26    20    21    2
    27    16    19    2
    28    16    37    1
    29    15    16    2
    30    11    17    2
    31    10    11    2
    32    13    14    2
    33    14    36    1
    34    14    35    1
    35     5     6   ar
    36     5    29    1
    37     4     5   ar
    38     4    28    1
    39     3     4   ar
    40     3    27    1
    41     2     3   ar
    42     2    26    1
    43     1     2   ar
@<TRIPOS>SUBSTRUCTURE
     1 <0>         1 TEMP              0 ****  ****    0 ROOT

