
##########                                Name:        KBT_561_3LAN
##########                    Molecular_Weight:             353.421
##########                DOCK_Rotatable_Bonds:                   6
##########                       Formal_Charge:        -0.000299692
##########                     HBond_Acceptors:                   6
##########                        HBond_Donors:                   1
##########                         Heavy_Atoms:                  26
##########                            HA_RMSDs:               0.275
##########                            HA_RMSDh:               0.275
##########                            HA_RMSDm:               0.275
##########                          Grid_Score:          -41.572720
##########                     Grid_vdw_energy:          -40.078827
##########                      Grid_es_energy:           -1.493894
##########           Internal_energy_repulsive:           13.608006

@<TRIPOS>MOLECULE
KBT_561_3LAN
 49 50 1 0 0
SMALL
USER_CHARGES


@<TRIPOS>ATOM
      1 C1          5.7013    8.1261   17.0603 C.3     1  <0>        -0.0652
      2 C2         10.5066   16.0874   19.7727 C.3     1  <0>        -0.0397
      3 C3         12.6324   13.9906   15.7762 C.3     1  <0>        -0.0584
      4 C4         12.7956   11.6255   14.7302 C.3     1  <0>        -0.0584
      5 C5         10.2153   13.9168   21.1353 C.ar    1  <0>        -0.0414
      6 C6         10.0460   13.8223   18.6800 C.ar    1  <0>        -0.0479
      7 C7          9.7818   11.7385   19.9969 C.ar    1  <0>        -0.0335
      8 C8          5.9841    9.6111   17.3617 C.3     1  <0>        -0.0545
      9 C9          6.5326   10.2934   16.0968 C.3     1  <0>        -0.0370
     10 C10         6.8832   11.7644   16.4323 C.3     1  <0>         0.0214
     11 C11         9.9122   11.8473   22.4393 C.1     1  <0>         0.0992
     12 C12        10.2557   14.5799   19.8697 C.ar    1  <0>        -0.0486
     13 C13         9.9775   12.4990   21.1885 C.ar    1  <0>         0.0527
     14 C14         9.8122   12.3945   18.7309 C.ar    1  <0>         0.0250
     15 C15        10.5117   12.6103   15.2967 C.2     1  <0>         0.0424
     16 C16         9.4309   12.1602   16.0775 C.2     1  <0>         0.0935
     17 C17        10.0959   13.1786   13.9298 C.2     1  <0>         0.2496
     18 C18         7.7968   12.7530   14.3983 C.2     1  <0>         0.3131
     19 C19        11.9943   12.5598   15.7169 C.3     1  <0>        -0.0147
     20 C20         9.5694   11.5669   17.4755 C.2     1  <0>         0.2078
     21 N1          9.8244   11.3197   23.4560 N.1     1  <0>        -0.1909
     22 N2          8.7886   13.2049   13.6028 N.am    1  <0>        -0.2359
     23 N3          8.0816   12.2441   15.6098 N.am    1  <0>        -0.2513
     24 O1         10.9036   13.6166   13.1263 O.2     1  <0>        -0.2700
     25 O2          6.6461   12.8393   13.9673 O.2     1  <0>        -0.2518
     26 O3          9.4449   10.3540   17.5617 O.2     1  <0>        -0.2853
     27 H1          5.3089    7.6363   17.9637 H       1  <0>         0.0230
     28 H2          4.9597    8.0510   16.2514 H       1  <0>         0.0230
     29 H3          6.6335    7.6310   16.7505 H       1  <0>         0.0230
     30 H4         11.5870   16.2750   19.6857 H       1  <0>         0.0278
     31 H5          9.9924   16.4882   18.8866 H       1  <0>         0.0278
     32 H6         10.1204   16.5821   20.6760 H       1  <0>         0.0278
     33 H7         12.0564   14.6210   16.4695 H       1  <0>         0.0235
     34 H8         13.6719   13.9140   16.1281 H       1  <0>         0.0235
     35 H9         12.6171   14.4406   14.7727 H       1  <0>         0.0235
     36 H10        12.3286   10.6298   14.7066 H       1  <0>         0.0235
     37 H11        12.7812   12.0610   13.7202 H       1  <0>         0.0235
     38 H12        13.8360   11.5343   15.0756 H       1  <0>         0.0235
     39 H13        10.3626   14.4772   22.0468 H       1  <0>         0.0633
     40 H14        10.0620   14.3229   17.7232 H       1  <0>         0.0627
     41 H15         9.6118   10.6734   20.0534 H       1  <0>         0.0637
     42 H16         5.0523   10.1068   17.6715 H       1  <0>         0.0263
     43 H17         6.7257    9.6869   18.1706 H       1  <0>         0.0263
     44 H18         7.4355    9.7667   15.7540 H       1  <0>         0.0280
     45 H19         5.7724   10.2661   15.3022 H       1  <0>         0.0280
     46 H20         6.0151   12.3999   16.2032 H       1  <0>         0.0469
     47 H21         7.1312   11.8380   17.5015 H       1  <0>         0.0469
     48 H22        12.0493   12.1426   16.7332 H       1  <0>         0.0346
     49 H23         8.5373   13.5843   12.7123 H       1  <0>         0.1594
@<TRIPOS>BOND
     1     1     8    1
     2     2    12    1
     3     3    19    1
     4     4    19    1
     5     5    12   ar
     6     5    13   ar
     7     6    12   ar
     8     6    14   ar
     9     7    13   ar
    10     7    14   ar
    11     8     9    1
    12     9    10    1
    13    10    23    1
    14    11    13    1
    15    11    21    3
    16    14    20    1
    17    15    16    2
    18    15    17    1
    19    15    19    1
    20    16    20    1
    21    16    23    1
    22    17    22   am
    23    17    24    2
    24    18    22   am
    25    18    23   am
    26    18    25    2
    27    20    26    2
    28     1    27    1
    29     1    28    1
    30     1    29    1
    31     2    30    1
    32     2    31    1
    33     2    32    1
    34     3    33    1
    35     3    34    1
    36     3    35    1
    37     4    36    1
    38     4    37    1
    39     4    38    1
    40     5    39    1
    41     6    40    1
    42     7    41    1
    43     8    42    1
    44     8    43    1
    45     9    44    1
    46     9    45    1
    47    10    46    1
    48    10    47    1
    49    19    48    1
    50    22    49    1
@<TRIPOS>SUBSTRUCTURE
     1 <0>         1 TEMP              0 ****  ****    0 ROOT

