
##########                                Name:               *****
##########                    Molecular_Weight:              288.37
##########                DOCK_Rotatable_Bonds:                   7
##########                       Formal_Charge:                   1
##########                     HBond_Acceptors:                   5
##########                        HBond_Donors:                   4
##########                         Heavy_Atoms:                  21
##########                            HA_RMSDs:               0.329
##########                            HA_RMSDh:               0.329
##########                            HA_RMSDm:               0.329
##########                          Grid_Score:         -115.637497
##########                     Grid_vdw_energy:          -43.297276
##########                      Grid_es_energy:          -72.340218
##########           Internal_energy_repulsive:            8.148067

@<TRIPOS>MOLECULE
*****
 43 44 1 0 0
SMALL
USER_CHARGES


@<TRIPOS>ATOM
      1 O1         24.7445    2.2504   -0.5982 O.3     1  <0>        -0.3842
      2 C1         25.5463    2.9389    0.3254 C.3     1  <0>         0.1184
      3 N1         30.0421    7.5778    5.1155 N.1     1  <0>        -0.1896
      4 C2         26.2214    4.1563   -0.3235 C.3     1  <0>        -0.0043
      5 N2         26.7068    3.8335   -1.6665 N.4     1  <0>         0.2326
      6 C3         27.6995    4.8402   -2.0818 C.3     1  <0>        -0.0203
      7 C4         28.9938    4.6084   -1.2649 C.3     1  <0>        -0.0193
      8 C5         27.1776    6.2874   -1.8163 C.3     1  <0>        -0.0193
      9 C6         24.6499    3.4636    1.4470 C.3     1  <0>         0.0851
     10 O2         25.5256    3.7943    2.5175 O.3     1  <0>        -0.3413
     11 C7         25.1035    4.5948    3.5157 C.ar    1  <0>         0.0853
     12 C8         23.7824    4.5343    3.9285 C.ar    1  <0>        -0.0310
     13 C9         23.3658    5.3285    4.9913 C.ar    1  <0>        -0.0575
     14 C10        24.2623    6.1740    5.6406 C.ar    1  <0>        -0.0398
     15 C11        25.5911    6.2277    5.2171 C.ar    1  <0>         0.0416
     16 C12        26.0031    5.4375    4.1440 C.ar    1  <0>         0.0285
     17 N3         26.6604    6.9229    5.6162 N.pl3   1  <0>        -0.3056
     18 C13        27.6726    6.5709    4.8249 C.2     1  <0>         0.1103
     19 C14        27.2905    5.6544    3.9210 C.2     1  <0>        -0.0186
     20 C15        29.0198    7.0817    4.9577 C.1     1  <0>         0.1147
     21 C16        27.9439    4.6403   -3.5991 C.3     1  <0>        -0.0193
     22 H1         24.3976    1.4643   -0.1929 H       1  <0>         0.2101
     23 H2         26.3164    2.2470    0.6972 H       1  <0>         0.0670
     24 H3         27.0732    4.4668    0.2993 H       1  <0>         0.0840
     25 H4         25.4899    4.9747   -0.3950 H       1  <0>         0.0840
     26 H5         25.9400    3.8359   -2.3083 H       1  <0>         0.2020
     27 H6         27.1319    2.9284   -1.6594 H       1  <0>         0.2020
     28 H7         28.7847    4.7581   -0.1953 H       1  <0>         0.0287
     29 H8         29.3511    3.5810   -1.4282 H       1  <0>         0.0287
     30 H9         29.7655    5.3213   -1.5907 H       1  <0>         0.0287
     31 H10        27.0059    6.4238   -0.7384 H       1  <0>         0.0287
     32 H11        27.9250    7.0160   -2.1634 H       1  <0>         0.0287
     33 H12        26.2341    6.4423   -2.3602 H       1  <0>         0.0287
     34 H13        24.0887    4.3495    1.1150 H       1  <0>         0.0593
     35 H14        23.9264    2.6960    1.7587 H       1  <0>         0.0593
     36 H15        23.0842    3.8778    3.4305 H       1  <0>         0.0643
     37 H16        22.3367    5.2894    5.3165 H       1  <0>         0.0619
     38 H17        23.9310    6.7847    6.4675 H       1  <0>         0.0636
     39 H18        26.6944    7.5826    6.3669 H       1  <0>         0.1528
     40 H19        27.9070    5.1893    3.1661 H       1  <0>         0.0650
     41 H20        28.3113    3.6195   -3.7805 H       1  <0>         0.0287
     42 H21        27.0014    4.7930   -4.1454 H       1  <0>         0.0287
     43 H22        28.6924    5.3668   -3.9485 H       1  <0>         0.0287
@<TRIPOS>BOND
     1     6    21    1
     2     6     8    1
     3     5     6    1
     4     6     7    1
     5     4     5    1
     6     1     2    1
     7     2     4    1
     8     2     9    1
     9     9    10    1
    10    10    11    1
    11    11    12   ar
    12    11    16   ar
    13    12    13   ar
    14    16    19    1
    15    18    19    2
    16    15    16   ar
    17    13    14   ar
    18    18    20    1
    19    17    18    1
    20     3    20    3
    21    14    15   ar
    22    15    17    1
    23     1    22    1
    24     2    23    1
    25     4    24    1
    26     4    25    1
    27     5    26    1
    28     5    27    1
    29     7    28    1
    30     7    29    1
    31     7    30    1
    32     8    31    1
    33     8    32    1
    34     8    33    1
    35     9    34    1
    36     9    35    1
    37    12    36    1
    38    13    37    1
    39    14    38    1
    40    17    39    1
    41    19    40    1
    42    21    41    1
    43    21    42    1
    44    21    43    1
@<TRIPOS>SUBSTRUCTURE
     1 <0>         1 TEMP              0 ****  ****    0 ROOT

