
##########                                Name:               *****
##########                    Molecular_Weight:              288.37
##########                DOCK_Rotatable_Bonds:                   7
##########                       Formal_Charge:                   1
##########                     HBond_Acceptors:                   5
##########                        HBond_Donors:                   4
##########                         Heavy_Atoms:                  21
##########                            HA_RMSDs:               0.592
##########                            HA_RMSDh:               0.592
##########                            HA_RMSDm:               0.579
##########                          Grid_Score:         -114.707703
##########                     Grid_vdw_energy:          -42.021084
##########                      Grid_es_energy:          -72.686623
##########           Internal_energy_repulsive:           10.666173

@<TRIPOS>MOLECULE
*****
 43 44 1 0 0
SMALL
USER_CHARGES


@<TRIPOS>ATOM
      1 O1         24.9451    2.3495   -0.6524 O.3     1  <0>        -0.3842
      2 C1         25.7721    3.1830    0.1165 C.3     1  <0>         0.1184
      3 N1         30.8179    7.3089    4.7995 N.1     1  <0>        -0.1896
      4 C2         26.2362    4.4039   -0.6914 C.3     1  <0>        -0.0043
      5 N2         26.7002    4.0073   -2.0220 N.4     1  <0>         0.2326
      6 C3         27.6677    5.0019   -2.5182 C.3     1  <0>        -0.0203
      7 C4         28.8959    4.9932   -1.5759 C.3     1  <0>        -0.0193
      8 C5         27.0443    6.4330   -2.5350 C.3     1  <0>        -0.0193
      9 C6         24.9619    3.7069    1.3023 C.3     1  <0>         0.0851
     10 O2         25.9064    3.9509    2.3368 O.3     1  <0>        -0.3413
     11 C7         25.5919    4.7645    3.3637 C.ar    1  <0>         0.0853
     12 C8         24.2881    4.8034    3.8305 C.ar    1  <0>        -0.0310
     13 C9         23.9810    5.6092    4.9216 C.ar    1  <0>        -0.0575
     14 C10        24.9690    6.3675    5.5453 C.ar    1  <0>        -0.0398
     15 C11        26.2794    6.3214    5.0673 C.ar    1  <0>         0.0416
     16 C12        26.5819    5.5201    3.9663 C.ar    1  <0>         0.0285
     17 N3         27.4172    6.9204    5.4316 N.pl3   1  <0>        -0.3056
     18 C13        28.3644    6.5023    4.5934 C.2     1  <0>         0.1103
     19 C14        27.8725    5.6364    3.6927 C.2     1  <0>        -0.0186
     20 C15        29.7530    6.9001    4.6773 C.1     1  <0>         0.1147
     21 C16        28.0557    4.5812   -3.9584 C.3     1  <0>        -0.0193
     22 H1         24.6521    1.6174   -0.1225 H       1  <0>         0.2101
     23 H2         26.6482    2.5998    0.4363 H       1  <0>         0.0670
     24 H3         27.0628    4.8936   -0.1559 H       1  <0>         0.0840
     25 H4         25.3931    5.1019   -0.8002 H       1  <0>         0.0840
     26 H5         25.9209    3.9588   -2.6468 H       1  <0>         0.2020
     27 H6         27.1403    3.1109   -1.9689 H       1  <0>         0.2020
     28 H7         28.5853    5.2958   -0.5650 H       1  <0>         0.0287
     29 H8         29.3232    3.9802   -1.5402 H       1  <0>         0.0287
     30 H9         29.6522    5.6972   -1.9531 H       1  <0>         0.0287
     31 H10        26.7708    6.7265   -1.5108 H       1  <0>         0.0287
     32 H11        27.7774    7.1474   -2.9376 H       1  <0>         0.0287
     33 H12        26.1452    6.4337   -3.1688 H       1  <0>         0.0287
     34 H13        24.4313    4.6321    1.0331 H       1  <0>         0.0593
     35 H14        24.2161    2.9646    1.6229 H       1  <0>         0.0593
     36 H15        23.5190    4.2148    3.3525 H       1  <0>         0.0643
     37 H16        22.9661    5.6475    5.2890 H       1  <0>         0.0619
     38 H17        24.7224    6.9878    6.3943 H       1  <0>         0.0636
     39 H18        27.5352    7.5614    6.1900 H       1  <0>         0.1528
     40 H19        28.4180    5.1368    2.9058 H       1  <0>         0.0650
     41 H20        28.4943    3.5726   -3.9408 H       1  <0>         0.0287
     42 H21        27.1580    4.5794   -4.5941 H       1  <0>         0.0287
     43 H22        28.7902    5.2932   -4.3628 H       1  <0>         0.0287
@<TRIPOS>BOND
     1     6    21    1
     2     6     8    1
     3     5     6    1
     4     6     7    1
     5     4     5    1
     6     1     2    1
     7     2     4    1
     8     2     9    1
     9     9    10    1
    10    10    11    1
    11    11    12   ar
    12    11    16   ar
    13    12    13   ar
    14    16    19    1
    15    18    19    2
    16    15    16   ar
    17    13    14   ar
    18    18    20    1
    19    17    18    1
    20     3    20    3
    21    14    15   ar
    22    15    17    1
    23     1    22    1
    24     2    23    1
    25     4    24    1
    26     4    25    1
    27     5    26    1
    28     5    27    1
    29     7    28    1
    30     7    29    1
    31     7    30    1
    32     8    31    1
    33     8    32    1
    34     8    33    1
    35     9    34    1
    36     9    35    1
    37    12    36    1
    38    13    37    1
    39    14    38    1
    40    17    39    1
    41    19    40    1
    42    21    41    1
    43    21    42    1
    44    21    43    1
@<TRIPOS>SUBSTRUCTURE
     1 <0>         1 TEMP              0 ****  ****    0 ROOT

