
##########                                Name:               *****
##########                    Molecular_Weight:              288.37
##########                DOCK_Rotatable_Bonds:                   7
##########                       Formal_Charge:                   1
##########                     HBond_Acceptors:                   5
##########                        HBond_Donors:                   4
##########                         Heavy_Atoms:                  21
##########                            HA_RMSDs:               0.643
##########                            HA_RMSDh:               0.643
##########                            HA_RMSDm:               0.643
##########                          Grid_Score:         -115.381767
##########                     Grid_vdw_energy:          -44.045425
##########                      Grid_es_energy:          -71.336342
##########           Internal_energy_repulsive:            7.710020

@<TRIPOS>MOLECULE
*****
 43 44 1 0 0
SMALL
USER_CHARGES


@<TRIPOS>ATOM
      1 O1         25.4676    2.4485   -0.8937 O.3     1  <0>        -0.3842
      2 C1         26.1505    3.4670   -0.2108 C.3     1  <0>         0.1184
      3 N1         30.5016    7.6672    4.8115 N.1     1  <0>        -0.1896
      4 C2         26.5539    4.6017   -1.1638 C.3     1  <0>        -0.0043
      5 N2         27.0786    4.0687   -2.4223 N.4     1  <0>         0.2326
      6 C3         28.1999    4.9088   -2.8785 C.3     1  <0>        -0.0203
      7 C4         29.3816    4.7117   -1.8981 C.3     1  <0>        -0.0193
      8 C5         27.7990    6.4174   -2.9020 C.3     1  <0>        -0.0193
      9 C6         25.2070    4.0663    0.8321 C.3     1  <0>         0.0851
     10 O2         25.9323    4.0632    2.0551 O.3     1  <0>        -0.3413
     11 C7         25.5220    4.8243    3.0884 C.ar    1  <0>         0.0853
     12 C8         24.2005    4.7633    3.5000 C.ar    1  <0>        -0.0310
     13 C9         23.7955    5.5153    4.5976 C.ar    1  <0>        -0.0575
     14 C10        24.7039    6.3191    5.2823 C.ar    1  <0>        -0.0398
     15 C11        26.0328    6.3737    4.8596 C.ar    1  <0>         0.0416
     16 C12        26.4333    5.6263    3.7521 C.ar    1  <0>         0.0285
     17 N3         27.1118    7.0361    5.2876 N.pl3   1  <0>        -0.3056
     18 C13        28.1184    6.7060    4.4800 C.2     1  <0>         0.1103
     19 C14        27.7233    5.8356    3.5370 C.2     1  <0>        -0.0186
     20 C15        29.4725    7.1924    4.6334 C.1     1  <0>         0.1147
     21 C16        28.5672    4.4408   -4.3096 C.3     1  <0>        -0.0193
     22 H1         25.3324    1.7109   -0.3104 H       1  <0>         0.2101
     23 H2         27.0523    3.0322    0.2449 H       1  <0>         0.0670
     24 H3         27.3316    5.2129   -0.6827 H       1  <0>         0.0840
     25 H4         25.6695    5.2195   -1.3785 H       1  <0>         0.0840
     26 H5         26.3559    4.0719   -3.1135 H       1  <0>         0.2020
     27 H6         27.3991    3.1321   -2.2805 H       1  <0>         0.2020
     28 H7         29.0870    5.0532   -0.8948 H       1  <0>         0.0287
     29 H8         29.6507    3.6460   -1.8582 H       1  <0>         0.0287
     30 H9         30.2467    5.2959   -2.2448 H       1  <0>         0.0287
     31 H10        27.5394    6.7442   -1.8843 H       1  <0>         0.0287
     32 H11        28.6436    7.0153   -3.2747 H       1  <0>         0.0287
     33 H12        26.9313    6.5558   -3.5638 H       1  <0>         0.0287
     34 H13        24.9182    5.0904    0.5531 H       1  <0>         0.0593
     35 H14        24.2911    3.4637    0.9209 H       1  <0>         0.0593
     36 H15        23.4931    4.1390    2.9745 H       1  <0>         0.0643
     37 H16        22.7662    5.4756    4.9222 H       1  <0>         0.0619
     38 H17        24.3815    6.8970    6.1359 H       1  <0>         0.0636
     39 H18        27.1553    7.6615    6.0667 H       1  <0>         0.1528
     40 H19        28.3329    5.3961    2.7614 H       1  <0>         0.0650
     41 H20        28.8487    3.3777   -4.2874 H       1  <0>         0.0287
     42 H21        27.7005    4.5766   -4.9733 H       1  <0>         0.0287
     43 H22        29.4129    5.0362   -4.6841 H       1  <0>         0.0287
@<TRIPOS>BOND
     1     6    21    1
     2     6     8    1
     3     5     6    1
     4     6     7    1
     5     4     5    1
     6     1     2    1
     7     2     4    1
     8     2     9    1
     9     9    10    1
    10    10    11    1
    11    11    12   ar
    12    11    16   ar
    13    12    13   ar
    14    16    19    1
    15    18    19    2
    16    15    16   ar
    17    13    14   ar
    18    18    20    1
    19    17    18    1
    20     3    20    3
    21    14    15   ar
    22    15    17    1
    23     1    22    1
    24     2    23    1
    25     4    24    1
    26     4    25    1
    27     5    26    1
    28     5    27    1
    29     7    28    1
    30     7    29    1
    31     7    30    1
    32     8    31    1
    33     8    32    1
    34     8    33    1
    35     9    34    1
    36     9    35    1
    37    12    36    1
    38    13    37    1
    39    14    38    1
    40    17    39    1
    41    19    40    1
    42    21    41    1
    43    21    42    1
    44    21    43    1
@<TRIPOS>SUBSTRUCTURE
     1 <0>         1 TEMP              0 ****  ****    0 ROOT

