
##########                                Name:               *****
##########                    Molecular_Weight:              288.37
##########                DOCK_Rotatable_Bonds:                   7
##########                       Formal_Charge:                   1
##########                     HBond_Acceptors:                   5
##########                        HBond_Donors:                   4
##########                         Heavy_Atoms:                  21
##########                            HA_RMSDs:               0.484
##########                            HA_RMSDh:               0.484
##########                            HA_RMSDm:               0.484
##########                          Grid_Score:         -114.465340
##########                     Grid_vdw_energy:          -42.041985
##########                      Grid_es_energy:          -72.423355
##########           Internal_energy_repulsive:           10.881361

@<TRIPOS>MOLECULE
*****
 43 44 1 0 0
SMALL
USER_CHARGES


@<TRIPOS>ATOM
      1 O1         24.9977    2.2596   -0.9127 O.3     1  <0>        -0.3842
      2 C1         25.7993    3.1166   -0.1428 C.3     1  <0>         0.1184
      3 N1         30.3992    7.7806    4.8224 N.1     1  <0>        -0.1896
      4 C2         26.1985    4.3682   -0.9382 C.3     1  <0>        -0.0043
      5 N2         26.8689    4.0044   -2.1878 N.4     1  <0>         0.2326
      6 C3         28.0113    4.9083   -2.4101 C.3     1  <0>        -0.0203
      7 C4         29.0301    4.6900   -1.2652 C.3     1  <0>        -0.0193
      8 C5         27.5548    6.4012   -2.4128 C.3     1  <0>        -0.0193
      9 C6         24.9850    3.5874    1.0622 C.3     1  <0>         0.0851
     10 O2         25.9304    4.1149    1.9841 O.3     1  <0>        -0.3413
     11 C7         25.5123    4.8008    3.0658 C.ar    1  <0>         0.0853
     12 C8         24.2060    4.6562    3.5041 C.ar    1  <0>        -0.0310
     13 C9         23.7953    5.3298    4.6494 C.ar    1  <0>        -0.0575
     14 C10        24.6833    6.1385    5.3549 C.ar    1  <0>        -0.0398
     15 C11        25.9971    6.2777    4.9050 C.ar    1  <0>         0.0416
     16 C12        26.4028    5.6089    3.7501 C.ar    1  <0>         0.0285
     17 N3         27.0552    6.9668    5.3426 N.pl3   1  <0>        -0.3056
     18 C13        28.0549    6.7271    4.4954 C.2     1  <0>         0.1103
     19 C14        27.6758    5.8896    3.5166 C.2     1  <0>        -0.0186
     20 C15        29.3888    7.2679    4.6431 C.1     1  <0>         0.1147
     21 C16        28.6203    4.5429   -3.7875 C.3     1  <0>        -0.0193
     22 H1         24.7930    1.4799   -0.4098 H       1  <0>         0.2101
     23 H2         26.7044    2.5672    0.1556 H       1  <0>         0.0670
     24 H3         26.8837    4.9756   -0.3288 H       1  <0>         0.0840
     25 H4         25.2926    4.9460   -1.1738 H       1  <0>         0.0840
     26 H5         26.2250    4.0866   -2.9485 H       1  <0>         0.2020
     27 H6         27.1958    3.0612   -2.1291 H       1  <0>         0.2020
     28 H7         28.5660    4.9583   -0.3046 H       1  <0>         0.0287
     29 H8         29.3350    3.6334   -1.2425 H       1  <0>         0.0287
     30 H9         29.9134    5.3232   -1.4349 H       1  <0>         0.0287
     31 H10        27.1235    6.6551   -1.4333 H       1  <0>         0.0287
     32 H11        28.4214    7.0490   -2.6108 H       1  <0>         0.0287
     33 H12        26.7978    6.5515   -3.1966 H       1  <0>         0.0287
     34 H13        24.2591    4.3585    0.7646 H       1  <0>         0.0593
     35 H14        24.4309    2.7490    1.5095 H       1  <0>         0.0593
     36 H15        23.5146    4.0276    2.9626 H       1  <0>         0.0643
     37 H16        22.7776    5.2248    4.9953 H       1  <0>         0.0619
     38 H17        24.3568    6.6552    6.2454 H       1  <0>         0.0636
     39 H18        27.0900    7.5518    6.1528 H       1  <0>         0.1528
     40 H19        28.2848    5.5205    2.7047 H       1  <0>         0.0650
     41 H20        28.9401    3.4904   -3.7801 H       1  <0>         0.0287
     42 H21        27.8647    4.6907   -4.5732 H       1  <0>         0.0287
     43 H22        29.4883    5.1883   -3.9873 H       1  <0>         0.0287
@<TRIPOS>BOND
     1     6    21    1
     2     6     8    1
     3     5     6    1
     4     6     7    1
     5     4     5    1
     6     1     2    1
     7     2     4    1
     8     2     9    1
     9     9    10    1
    10    10    11    1
    11    11    12   ar
    12    11    16   ar
    13    12    13   ar
    14    16    19    1
    15    18    19    2
    16    15    16   ar
    17    13    14   ar
    18    18    20    1
    19    17    18    1
    20     3    20    3
    21    14    15   ar
    22    15    17    1
    23     1    22    1
    24     2    23    1
    25     4    24    1
    26     4    25    1
    27     5    26    1
    28     5    27    1
    29     7    28    1
    30     7    29    1
    31     7    30    1
    32     8    31    1
    33     8    32    1
    34     8    33    1
    35     9    34    1
    36     9    35    1
    37    12    36    1
    38    13    37    1
    39    14    38    1
    40    17    39    1
    41    19    40    1
    42    21    41    1
    43    21    42    1
    44    21    43    1
@<TRIPOS>SUBSTRUCTURE
     1 <0>         1 TEMP              0 ****  ****    0 ROOT

