
##########                                Name:               *****
##########                    Molecular_Weight:              288.37
##########                DOCK_Rotatable_Bonds:                   7
##########                       Formal_Charge:                   1
##########                     HBond_Acceptors:                   5
##########                        HBond_Donors:                   4
##########                         Heavy_Atoms:                  21
##########                            HA_RMSDs:               0.406
##########                            HA_RMSDh:               0.406
##########                            HA_RMSDm:               0.406
##########                          Grid_Score:         -112.554443
##########                     Grid_vdw_energy:          -39.319950
##########                      Grid_es_energy:          -73.234489
##########           Internal_energy_repulsive:            8.398807

@<TRIPOS>MOLECULE
*****
 43 44 1 0 0
SMALL
USER_CHARGES


@<TRIPOS>ATOM
      1 O1         24.5892    2.0831   -0.6717 O.3     1  <0>        -0.3842
      2 C1         25.3873    2.7302    0.2844 C.3     1  <0>         0.1184
      3 N1         29.8749    7.2687    5.1858 N.1     1  <0>        -0.1896
      4 C2         26.0936    3.9540   -0.3175 C.3     1  <0>        -0.0043
      5 N2         26.5997    3.6607   -1.6595 N.4     1  <0>         0.2326
      6 C3         27.5835    4.6876   -2.0455 C.3     1  <0>        -0.0203
      7 C4         28.8561    4.4841   -1.1879 C.3     1  <0>        -0.0193
      8 C5         27.0233    6.1237   -1.7992 C.3     1  <0>        -0.0193
      9 C6         24.4818    3.2374    1.4067 C.3     1  <0>         0.0851
     10 O2         25.3503    3.5696    2.4825 O.3     1  <0>        -0.3413
     11 C7         24.9218    4.3718    3.4766 C.ar    1  <0>         0.0853
     12 C8         23.5923    4.3301    3.8637 C.ar    1  <0>        -0.0310
     13 C9         23.1678    5.1256    4.9225 C.ar    1  <0>        -0.0575
     14 C10        24.0649    5.9537    5.5932 C.ar    1  <0>        -0.0398
     15 C11        25.4021    5.9885    5.1954 C.ar    1  <0>         0.0416
     16 C12        25.8223    5.1971    4.1263 C.ar    1  <0>         0.0285
     17 N3         26.4744    6.6648    5.6184 N.pl3   1  <0>        -0.3056
     18 C13        27.4959    6.3007    4.8448 C.2     1  <0>         0.1103
     19 C14        27.1169    5.3948    3.9290 C.2     1  <0>        -0.0186
     20 C15        28.8482    6.7896    5.0059 C.1     1  <0>         0.1147
     21 C16        27.8796    4.4909   -3.5540 C.3     1  <0>        -0.0193
     22 H1         24.3106    1.2399   -0.3340 H       1  <0>         0.2101
     23 H2         26.1393    2.0143    0.6478 H       1  <0>         0.0670
     24 H3         26.9380    4.2335    0.3297 H       1  <0>         0.0840
     25 H4         25.3765    4.7857   -0.3798 H       1  <0>         0.0840
     26 H5         25.8407    3.6638   -2.3107 H       1  <0>         0.2020
     27 H6         27.0369    2.7614   -1.6624 H       1  <0>         0.2020
     28 H7         28.6105    4.6307   -0.1257 H       1  <0>         0.0287
     29 H8         29.2399    3.4642   -1.3379 H       1  <0>         0.0287
     30 H9         29.6225    5.2126   -1.4907 H       1  <0>         0.0287
     31 H10        26.8150    6.2579   -0.7275 H       1  <0>         0.0287
     32 H11        27.7658    6.8674   -2.1242 H       1  <0>         0.0287
     33 H12        26.0943    6.2581   -2.3727 H       1  <0>         0.0287
     34 H13        23.9124    4.1197    1.0791 H       1  <0>         0.0593
     35 H14        23.7652    2.4601    1.7104 H       1  <0>         0.0593
     36 H15        22.8935    3.6872    3.3492 H       1  <0>         0.0643
     37 H16        22.1322    5.1011    5.2278 H       1  <0>         0.0619
     38 H17        23.7274    6.5655    6.4167 H       1  <0>         0.0636
     39 H18        26.5043    7.3202    6.3730 H       1  <0>         0.1528
     40 H19        27.7405    4.9237    3.1836 H       1  <0>         0.0650
     41 H20        28.2739    3.4778   -3.7218 H       1  <0>         0.0287
     42 H21        26.9517    4.6231   -4.1298 H       1  <0>         0.0287
     43 H22        28.6232    5.2325   -3.8812 H       1  <0>         0.0287
@<TRIPOS>BOND
     1     6    21    1
     2     6     8    1
     3     5     6    1
     4     6     7    1
     5     4     5    1
     6     1     2    1
     7     2     4    1
     8     2     9    1
     9     9    10    1
    10    10    11    1
    11    11    12   ar
    12    11    16   ar
    13    12    13   ar
    14    16    19    1
    15    18    19    2
    16    15    16   ar
    17    13    14   ar
    18    18    20    1
    19    17    18    1
    20     3    20    3
    21    14    15   ar
    22    15    17    1
    23     1    22    1
    24     2    23    1
    25     4    24    1
    26     4    25    1
    27     5    26    1
    28     5    27    1
    29     7    28    1
    30     7    29    1
    31     7    30    1
    32     8    31    1
    33     8    32    1
    34     8    33    1
    35     9    34    1
    36     9    35    1
    37    12    36    1
    38    13    37    1
    39    14    38    1
    40    17    39    1
    41    19    40    1
    42    21    41    1
    43    21    42    1
    44    21    43    1
@<TRIPOS>SUBSTRUCTURE
     1 <0>         1 TEMP              0 ****  ****    0 ROOT

