
##########                                Name:               *****
##########                    Molecular_Weight:              288.37
##########                DOCK_Rotatable_Bonds:                   7
##########                       Formal_Charge:                   1
##########                     HBond_Acceptors:                   5
##########                        HBond_Donors:                   4
##########                         Heavy_Atoms:                  21
##########                            HA_RMSDs:               0.449
##########                            HA_RMSDh:               0.449
##########                            HA_RMSDm:               0.449
##########                          Grid_Score:         -112.952095
##########                     Grid_vdw_energy:          -43.168381
##########                      Grid_es_energy:          -69.783714
##########           Internal_energy_repulsive:            8.078611

@<TRIPOS>MOLECULE
*****
 43 44 1 0 0
SMALL
USER_CHARGES


@<TRIPOS>ATOM
      1 O1         24.6704    2.4017   -0.6395 O.3     1  <0>        -0.3842
      2 C1         25.4946    3.0990    0.2573 C.3     1  <0>         0.1184
      3 N1         30.1805    7.6795    4.8933 N.1     1  <0>        -0.1896
      4 C2         26.1253    4.3303   -0.4097 C.3     1  <0>        -0.0043
      5 N2         26.9263    3.9446   -1.5729 N.4     1  <0>         0.2326
      6 C3         27.9583    4.9679   -1.8161 C.3     1  <0>        -0.0203
      7 C4         29.0459    4.8265   -0.7237 C.3     1  <0>        -0.0193
      8 C5         27.3512    6.4048   -1.7525 C.3     1  <0>        -0.0193
      9 C6         24.6320    3.6037    1.4141 C.3     1  <0>         0.0851
     10 O2         25.5409    3.9389    2.4550 O.3     1  <0>        -0.3413
     11 C7         25.1565    4.7589    3.4526 C.ar    1  <0>         0.0853
     12 C8         23.8450    4.7257    3.8979 C.ar    1  <0>        -0.0310
     13 C9         23.4674    5.5402    4.9599 C.ar    1  <0>        -0.0575
     14 C10        24.3931    6.3789    5.5762 C.ar    1  <0>        -0.0398
     15 C11        25.7118    6.4051    5.1200 C.ar    1  <0>         0.0416
     16 C12        26.0847    5.5945    4.0478 C.ar    1  <0>         0.0285
     17 N3         26.8018    7.0874    5.4840 N.pl3   1  <0>        -0.3056
     18 C13        27.7885    6.7086    4.6732 C.2     1  <0>         0.1103
     19 C14        27.3696    5.7871    3.7909 C.2     1  <0>        -0.0186
     20 C15        29.1467    7.1986    4.7667 C.1     1  <0>         0.1147
     21 C16        28.5372    4.7045   -3.2293 C.3     1  <0>        -0.0193
     22 H1         24.1903    1.7287   -0.1713 H       1  <0>         0.2101
     23 H2         26.2890    2.4181    0.5968 H       1  <0>         0.0670
     24 H3         26.7745    4.8381    0.3186 H       1  <0>         0.0840
     25 H4         25.3241    5.0093   -0.7368 H       1  <0>         0.0840
     26 H5         26.3347    3.8694   -2.3757 H       1  <0>         0.2020
     27 H6         27.3647    3.0628   -1.3990 H       1  <0>         0.2020
     28 H7         28.6017    5.0195    0.2640 H       1  <0>         0.0287
     29 H8         29.4584    3.8071   -0.7471 H       1  <0>         0.0287
     30 H9         29.8507    5.5523   -0.9117 H       1  <0>         0.0287
     31 H10        26.9420    6.5864   -0.7478 H       1  <0>         0.0287
     32 H11        28.1367    7.1443   -1.9675 H       1  <0>         0.0287
     33 H12        26.5474    6.4964   -2.4978 H       1  <0>         0.0287
     34 H13        24.0475    4.4842    1.1089 H       1  <0>         0.0593
     35 H14        23.9303    2.8242    1.7457 H       1  <0>         0.0593
     36 H15        23.1242    4.0746    3.4256 H       1  <0>         0.0643
     37 H16        22.4460    5.5224    5.3104 H       1  <0>         0.0619
     38 H17        24.0921    7.0055    6.4027 H       1  <0>         0.0636
     39 H18        26.8648    7.7560    6.2249 H       1  <0>         0.1528
     40 H19        27.9599    5.3022    3.0275 H       1  <0>         0.0650
     41 H20        28.9634    3.6912   -3.2685 H       1  <0>         0.0287
     42 H21        27.7349    4.7938   -3.9766 H       1  <0>         0.0287
     43 H22        29.3243    5.4418   -3.4462 H       1  <0>         0.0287
@<TRIPOS>BOND
     1     6    21    1
     2     6     8    1
     3     5     6    1
     4     6     7    1
     5     4     5    1
     6     1     2    1
     7     2     4    1
     8     2     9    1
     9     9    10    1
    10    10    11    1
    11    11    12   ar
    12    11    16   ar
    13    12    13   ar
    14    16    19    1
    15    18    19    2
    16    15    16   ar
    17    13    14   ar
    18    18    20    1
    19    17    18    1
    20     3    20    3
    21    14    15   ar
    22    15    17    1
    23     1    22    1
    24     2    23    1
    25     4    24    1
    26     4    25    1
    27     5    26    1
    28     5    27    1
    29     7    28    1
    30     7    29    1
    31     7    30    1
    32     8    31    1
    33     8    32    1
    34     8    33    1
    35     9    34    1
    36     9    35    1
    37    12    36    1
    38    13    37    1
    39    14    38    1
    40    17    39    1
    41    19    40    1
    42    21    41    1
    43    21    42    1
    44    21    43    1
@<TRIPOS>SUBSTRUCTURE
     1 <0>         1 TEMP              0 ****  ****    0 ROOT

