
##########                                Name:               *****
##########                    Molecular_Weight:              288.37
##########                DOCK_Rotatable_Bonds:                   7
##########                       Formal_Charge:                   1
##########                     HBond_Acceptors:                   5
##########                        HBond_Donors:                   4
##########                         Heavy_Atoms:                  21
##########                            HA_RMSDs:               0.464
##########                            HA_RMSDh:               0.464
##########                            HA_RMSDm:               0.464
##########                          Grid_Score:         -117.666550
##########                     Grid_vdw_energy:          -44.888477
##########                      Grid_es_energy:          -72.778069
##########           Internal_energy_repulsive:            9.006944

@<TRIPOS>MOLECULE
*****
 43 44 1 0 0
SMALL
USER_CHARGES


@<TRIPOS>ATOM
      1 O1         25.1936    2.2320   -0.7469 O.3     1  <0>        -0.3842
      2 C1         25.9206    3.2250   -0.0721 C.3     1  <0>         0.1184
      3 N1         30.5039    7.4979    5.1185 N.1     1  <0>        -0.1896
      4 C2         26.2404    4.4068   -0.9994 C.3     1  <0>        -0.0043
      5 N2         26.8795    3.9474   -2.2338 N.4     1  <0>         0.2326
      6 C3         27.9788    4.8639   -2.5847 C.3     1  <0>        -0.0203
      7 C4         29.0990    4.7016   -1.5287 C.3     1  <0>        -0.0193
      8 C5         27.4929    6.3474   -2.5933 C.3     1  <0>        -0.0193
      9 C6         25.0573    3.7656    1.0678 C.3     1  <0>         0.0851
     10 O2         25.9577    4.0534    2.1301 O.3     1  <0>        -0.3413
     11 C7         25.5393    4.7545    3.2019 C.ar    1  <0>         0.0853
     12 C8         24.2150    4.6696    3.6000 C.ar    1  <0>        -0.0310
     13 C9         23.8016    5.3579    4.7355 C.ar    1  <0>        -0.0575
     14 C10        24.7044    6.1221    5.4712 C.ar    1  <0>        -0.0398
     15 C11        26.0362    6.2013    5.0617 C.ar    1  <0>         0.0416
     16 C12        26.4452    5.5181    3.9164 C.ar    1  <0>         0.0285
     17 N3         27.1115    6.8390    5.5341 N.pl3   1  <0>        -0.3056
     18 C13        28.1241    6.5558    4.7163 C.2     1  <0>         0.1103
     19 C14        27.7364    5.7400    3.7227 C.2     1  <0>        -0.0186
     20 C15        29.4766    7.0334    4.9065 C.1     1  <0>         0.1147
     21 C16        28.4713    4.4645   -3.9989 C.3     1  <0>        -0.0193
     22 H1         24.7053    1.7138   -0.1179 H       1  <0>         0.2101
     23 H2         26.8583    2.7794    0.2913 H       1  <0>         0.0670
     24 H3         26.9222    5.0953   -0.4788 H       1  <0>         0.0840
     25 H4         25.3042    4.9254   -1.2533 H       1  <0>         0.0840
     26 H5         26.2066    3.9342   -2.9735 H       1  <0>         0.2020
     27 H6         27.2433    3.0258   -2.0986 H       1  <0>         0.2020
     28 H7         28.7160    4.9929   -0.5395 H       1  <0>         0.0287
     29 H8         29.4266    3.6520   -1.5004 H       1  <0>         0.0287
     30 H9         29.9505    5.3446   -1.7959 H       1  <0>         0.0287
     31 H10        27.1446    6.6256   -1.5877 H       1  <0>         0.0287
     32 H11        28.3250    7.0039   -2.8876 H       1  <0>         0.0287
     33 H12        26.6667    6.4584   -3.3110 H       1  <0>         0.0287
     34 H13        24.5220    4.6739    0.7540 H       1  <0>         0.0593
     35 H14        24.3124    3.0189    1.3801 H       1  <0>         0.0593
     36 H15        23.5119    4.0756    3.0350 H       1  <0>         0.0643
     37 H16        22.7701    5.2993    5.0501 H       1  <0>         0.0619
     38 H17        24.3755    6.6505    6.3538 H       1  <0>         0.0636
     39 H18        27.1489    7.4192    6.3477 H       1  <0>         0.1528
     40 H19        28.3519    5.3455    2.9277 H       1  <0>         0.0650
     41 H20        28.8123    3.4187   -3.9872 H       1  <0>         0.0287
     42 H21        27.6464    4.5729   -4.7185 H       1  <0>         0.0287
     43 H22        29.3047    5.1185   -4.2949 H       1  <0>         0.0287
@<TRIPOS>BOND
     1     6    21    1
     2     6     8    1
     3     5     6    1
     4     6     7    1
     5     4     5    1
     6     1     2    1
     7     2     4    1
     8     2     9    1
     9     9    10    1
    10    10    11    1
    11    11    12   ar
    12    11    16   ar
    13    12    13   ar
    14    16    19    1
    15    18    19    2
    16    15    16   ar
    17    13    14   ar
    18    18    20    1
    19    17    18    1
    20     3    20    3
    21    14    15   ar
    22    15    17    1
    23     1    22    1
    24     2    23    1
    25     4    24    1
    26     4    25    1
    27     5    26    1
    28     5    27    1
    29     7    28    1
    30     7    29    1
    31     7    30    1
    32     8    31    1
    33     8    32    1
    34     8    33    1
    35     9    34    1
    36     9    35    1
    37    12    36    1
    38    13    37    1
    39    14    38    1
    40    17    39    1
    41    19    40    1
    42    21    41    1
    43    21    42    1
    44    21    43    1
@<TRIPOS>SUBSTRUCTURE
     1 <0>         1 TEMP              0 ****  ****    0 ROOT

