
##########                                Name:               *****
##########                    Molecular_Weight:              288.37
##########                DOCK_Rotatable_Bonds:                   7
##########                       Formal_Charge:                   1
##########                     HBond_Acceptors:                   5
##########                        HBond_Donors:                   4
##########                         Heavy_Atoms:                  21
##########                            HA_RMSDs:               0.289
##########                            HA_RMSDh:               0.289
##########                            HA_RMSDm:               0.289
##########                          Grid_Score:         -115.028427
##########                     Grid_vdw_energy:          -42.843086
##########                      Grid_es_energy:          -72.185341
##########           Internal_energy_repulsive:            8.050385

@<TRIPOS>MOLECULE
*****
 43 44 1 0 0
SMALL
USER_CHARGES


@<TRIPOS>ATOM
      1 O1         24.8553    2.1461   -0.9922 O.3     1  <0>        -0.3842
      2 C1         25.5806    2.9468   -0.0962 C.3     1  <0>         0.1184
      3 N1         29.8414    7.5822    4.7929 N.1     1  <0>        -0.1896
      4 C2         26.1870    4.1663   -0.8061 C.3     1  <0>        -0.0043
      5 N2         26.9464    3.7606   -1.9901 N.4     1  <0>         0.2326
      6 C3         27.8472    4.8556   -2.3912 C.3     1  <0>        -0.0203
      7 C4         29.1554    4.7294   -1.5732 C.3     1  <0>        -0.0193
      8 C5         27.1992    6.2479   -2.1108 C.3     1  <0>        -0.0193
      9 C6         24.6185    3.4751    0.9677 C.3     1  <0>         0.0851
     10 O2         25.4192    3.7460    2.1112 O.3     1  <0>        -0.3413
     11 C7         24.9628    4.5636    3.0800 C.ar    1  <0>         0.0853
     12 C8         23.6284    4.5084    3.4486 C.ar    1  <0>        -0.0310
     13 C9         23.1752    5.3209    4.4823 C.ar    1  <0>        -0.0575
     14 C10        24.0484    6.1792    5.1465 C.ar    1  <0>        -0.0398
     15 C11        25.3907    6.2274    4.7674 C.ar    1  <0>         0.0416
     16 C12        25.8397    5.4187    3.7233 C.ar    1  <0>         0.0285
     17 N3         26.4452    6.9312    5.1900 N.pl3   1  <0>        -0.3056
     18 C13        27.4840    6.5667    4.4401 C.2     1  <0>         0.1103
     19 C14        27.1337    5.6336    3.5402 C.2     1  <0>        -0.0186
     20 C15        28.8255    7.0819    4.6094 C.1     1  <0>         0.1147
     21 C16        28.1112    4.6955   -3.9099 C.3     1  <0>        -0.0193
     22 H1         24.6249    1.3267   -0.5702 H       1  <0>         0.2101
     23 H2         26.3864    2.3364    0.3376 H       1  <0>         0.0670
     24 H3         26.8613    4.6864   -0.1099 H       1  <0>         0.0840
     25 H4         25.3745    4.8398   -1.1162 H       1  <0>         0.0840
     26 H5         26.3150    3.5565   -2.7382 H       1  <0>         0.2020
     27 H6         27.4855    2.9454   -1.7780 H       1  <0>         0.2020
     28 H7         28.9319    4.8478   -0.5026 H       1  <0>         0.0287
     29 H8         29.6023    3.7395   -1.7470 H       1  <0>         0.0287
     30 H9         29.8618    5.5113   -1.8887 H       1  <0>         0.0287
     31 H10        27.0141    6.3563   -1.0320 H       1  <0>         0.0287
     32 H11        27.8801    7.0435   -2.4475 H       1  <0>         0.0287
     33 H12        26.2468    6.3253   -2.6556 H       1  <0>         0.0287
     34 H13        24.1158    4.3892    0.6188 H       1  <0>         0.0593
     35 H14        23.8467    2.7269    1.2010 H       1  <0>         0.0593
     36 H15        22.9481    3.8421    2.9391 H       1  <0>         0.0643
     37 H16        22.1357    5.2860    4.7731 H       1  <0>         0.0619
     38 H17        23.6886    6.8041    5.9505 H       1  <0>         0.0636
     39 H18        26.4530    7.6043    5.9296 H       1  <0>         0.1528
     40 H19        27.7760    5.1560    2.8152 H       1  <0>         0.0650
     41 H20        28.5675    3.7132   -4.1017 H       1  <0>         0.0287
     42 H21        27.1599    4.7708   -4.4572 H       1  <0>         0.0287
     43 H22        28.7933    5.4891   -4.2490 H       1  <0>         0.0287
@<TRIPOS>BOND
     1     6    21    1
     2     6     8    1
     3     5     6    1
     4     6     7    1
     5     4     5    1
     6     1     2    1
     7     2     4    1
     8     2     9    1
     9     9    10    1
    10    10    11    1
    11    11    12   ar
    12    11    16   ar
    13    12    13   ar
    14    16    19    1
    15    18    19    2
    16    15    16   ar
    17    13    14   ar
    18    18    20    1
    19    17    18    1
    20     3    20    3
    21    14    15   ar
    22    15    17    1
    23     1    22    1
    24     2    23    1
    25     4    24    1
    26     4    25    1
    27     5    26    1
    28     5    27    1
    29     7    28    1
    30     7    29    1
    31     7    30    1
    32     8    31    1
    33     8    32    1
    34     8    33    1
    35     9    34    1
    36     9    35    1
    37    12    36    1
    38    13    37    1
    39    14    38    1
    40    17    39    1
    41    19    40    1
    42    21    41    1
    43    21    42    1
    44    21    43    1
@<TRIPOS>SUBSTRUCTURE
     1 <0>         1 TEMP              0 ****  ****    0 ROOT

