
##########                                Name:               *****
##########                    Molecular_Weight:              288.37
##########                DOCK_Rotatable_Bonds:                   7
##########                       Formal_Charge:                   1
##########                     HBond_Acceptors:                   5
##########                        HBond_Donors:                   4
##########                         Heavy_Atoms:                  21
##########                            HA_RMSDs:               0.373
##########                            HA_RMSDh:               0.373
##########                            HA_RMSDm:               0.373
##########                          Grid_Score:         -115.868347
##########                     Grid_vdw_energy:          -44.758068
##########                      Grid_es_energy:          -71.110275
##########           Internal_energy_repulsive:            7.174055

@<TRIPOS>MOLECULE
*****
 43 44 1 0 0
SMALL
USER_CHARGES


@<TRIPOS>ATOM
      1 O1         24.7010    2.3876   -0.6324 O.3     1  <0>        -0.3842
      2 C1         25.4645    3.1286    0.2830 C.3     1  <0>         0.1184
      3 N1         29.9495    7.7117    4.8078 N.1     1  <0>        -0.1896
      4 C2         26.1385    4.3287   -0.3982 C.3     1  <0>        -0.0043
      5 N2         26.7747    3.9299   -1.6549 N.4     1  <0>         0.2326
      6 C3         27.7566    4.9545   -2.0518 C.3     1  <0>        -0.0203
      7 C4         29.0303    4.7613   -1.1935 C.3     1  <0>        -0.0193
      8 C5         27.1943    6.3921   -1.8189 C.3     1  <0>        -0.0193
      9 C6         24.5276    3.6848    1.3553 C.3     1  <0>         0.0851
     10 O2         25.3296    3.8552    2.5171 O.3     1  <0>        -0.3413
     11 C7         24.9430    4.7047    3.4889 C.ar    1  <0>         0.0853
     12 C8         23.6339    4.6756    3.9414 C.ar    1  <0>        -0.0310
     13 C9         23.2544    5.5218    4.9778 C.ar    1  <0>        -0.0575
     14 C10        24.1761    6.3878    5.5616 C.ar    1  <0>        -0.0398
     15 C11        25.4925    6.4095    5.0983 C.ar    1  <0>         0.0416
     16 C12        25.8670    5.5669    4.0517 C.ar    1  <0>         0.0285
     17 N3         26.5785    7.1123    5.4343 N.pl3   1  <0>        -0.3056
     18 C13        27.5645    6.7148    4.6317 C.2     1  <0>         0.1103
     19 C14        27.1491    5.7613    3.7823 C.2     1  <0>        -0.0186
     20 C15        28.9191    7.2186    4.7023 C.1     1  <0>         0.1147
     21 C16        28.0515    4.7437   -3.5586 C.3     1  <0>        -0.0193
     22 H1         24.4257    1.5726   -0.2293 H       1  <0>         0.2101
     23 H2         26.2345    2.4665    0.7059 H       1  <0>         0.0670
     24 H3         26.9049    4.7384    0.2761 H       1  <0>         0.0840
     25 H4         25.3768    5.0935   -0.6102 H       1  <0>         0.0840
     26 H5         26.0790    3.8401   -2.3677 H       1  <0>         0.2020
     27 H6         27.2389    3.0529   -1.5307 H       1  <0>         0.2020
     28 H7         28.7854    4.9179   -0.1325 H       1  <0>         0.0287
     29 H8         29.4156    3.7407   -1.3340 H       1  <0>         0.0287
     30 H9         29.7953    5.4882   -1.5041 H       1  <0>         0.0287
     31 H10        26.9868    6.5363   -0.7484 H       1  <0>         0.0287
     32 H11        27.9353    7.1338   -2.1518 H       1  <0>         0.0287
     33 H12        26.2646    6.5194   -2.3928 H       1  <0>         0.0287
     34 H13        24.0962    4.6448    1.0356 H       1  <0>         0.0593
     35 H14        23.7014    2.9856    1.5514 H       1  <0>         0.0593
     36 H15        22.9163    4.0035    3.4945 H       1  <0>         0.0643
     37 H16        22.2349    5.5073    5.3337 H       1  <0>         0.0619
     38 H17        23.8738    7.0389    6.3684 H       1  <0>         0.0636
     39 H18        26.6394    7.8054    6.1524 H       1  <0>         0.1528
     40 H19        27.7399    5.2562    3.0325 H       1  <0>         0.0650
     41 H20        28.4472    3.7297   -3.7169 H       1  <0>         0.0287
     42 H21        27.1229    4.8688   -4.1348 H       1  <0>         0.0287
     43 H22        28.7937    5.4833   -3.8937 H       1  <0>         0.0287
@<TRIPOS>BOND
     1     6    21    1
     2     6     8    1
     3     5     6    1
     4     6     7    1
     5     4     5    1
     6     1     2    1
     7     2     4    1
     8     2     9    1
     9     9    10    1
    10    10    11    1
    11    11    12   ar
    12    11    16   ar
    13    12    13   ar
    14    16    19    1
    15    18    19    2
    16    15    16   ar
    17    13    14   ar
    18    18    20    1
    19    17    18    1
    20     3    20    3
    21    14    15   ar
    22    15    17    1
    23     1    22    1
    24     2    23    1
    25     4    24    1
    26     4    25    1
    27     5    26    1
    28     5    27    1
    29     7    28    1
    30     7    29    1
    31     7    30    1
    32     8    31    1
    33     8    32    1
    34     8    33    1
    35     9    34    1
    36     9    35    1
    37    12    36    1
    38    13    37    1
    39    14    38    1
    40    17    39    1
    41    19    40    1
    42    21    41    1
    43    21    42    1
    44    21    43    1
@<TRIPOS>SUBSTRUCTURE
     1 <0>         1 TEMP              0 ****  ****    0 ROOT

