
##########                                Name:               *****
##########                    Molecular_Weight:             299.305
##########                DOCK_Rotatable_Bonds:                   4
##########                       Formal_Charge:                   0
##########                     HBond_Acceptors:                   6
##########                        HBond_Donors:                   4
##########                         Heavy_Atoms:                  22
##########                            HA_RMSDs:               0.076
##########                            HA_RMSDh:               0.076
##########                            HA_RMSDm:               0.076
##########                          Grid_Score:          -37.874840
##########                     Grid_vdw_energy:          -35.956070
##########                      Grid_es_energy:           -1.918768
##########           Internal_energy_repulsive:            8.801968

@<TRIPOS>MOLECULE
*****
 36 38 1 0 0
SMALL
USER_CHARGES


@<TRIPOS>ATOM
      1 C1         35.3907   -0.4916  -28.2969 C.3     1  <0>        -0.0372
      2 C2         30.3759   -1.1603  -27.2317 C.3     1  <0>        -0.0258
      3 C3         36.7437   -8.2676  -29.3397 C.ar    1  <0>        -0.0247
      4 C4         35.3591   -8.3578  -29.0269 C.ar    1  <0>        -0.0372
      5 C5         36.7017   -5.7975  -29.0740 C.ar    1  <0>        -0.0168
      6 C6         34.5298   -3.5773  -28.3517 C.2     1  <0>        -0.0275
      7 C7         34.0351   -1.0785  -28.0369 C.2     1  <0>        -0.0158
      8 C8         31.8230   -1.2774  -27.5595 C.2     1  <0>         0.0175
      9 C9         37.3992   -7.0006  -29.3607 C.ar    1  <0>         0.1241
     10 C10        34.6777   -7.1626  -28.7462 C.ar    1  <0>         0.0417
     11 C11        35.3161   -5.8917  -28.7631 C.ar    1  <0>         0.0111
     12 C12        33.7079   -2.4364  -28.0696 C.2     1  <0>         0.0356
     13 C13        32.8319   -0.3357  -27.7143 C.2     1  <0>         0.0578
     14 C14        34.2617   -4.9009  -28.4204 C.2     1  <0>         0.0478
     15 C15        32.9883   -5.6922  -28.2078 C.2     1  <0>         0.2490
     16 C16        32.7079    1.1302  -27.5803 C.2     1  <0>         0.2433
     17 N1         33.6213    1.7262  -26.7283 N.am    1  <0>        -0.3253
     18 N2         32.3689   -2.5203  -27.7739 N.pl3   1  <0>        -0.3172
     19 N3         33.3301   -7.0275  -28.4217 N.am    1  <0>        -0.2809
     20 O1         31.8929   -5.2598  -27.9143 O.2     1  <0>        -0.2698
     21 O2         31.8390    1.7605  -28.1909 O.2     1  <0>        -0.2704
     22 F1         38.7072   -6.9490  -29.6563 F       1  <0>        -0.2055
     23 H1         35.4958   -0.2717  -29.3699 H       1  <0>         0.0278
     24 H2         35.5046    0.4374  -27.7190 H       1  <0>         0.0278
     25 H3         36.1660   -1.2099  -27.9921 H       1  <0>         0.0278
     26 H4         29.7959   -1.0561  -28.1607 H       1  <0>         0.0290
     27 H5         30.0472   -2.0620  -26.6943 H       1  <0>         0.0290
     28 H6         30.2137   -0.2764  -26.5982 H       1  <0>         0.0290
     29 H7         37.3025   -9.1638  -29.5626 H       1  <0>         0.0647
     30 H8         34.8508   -9.3105  -29.0056 H       1  <0>         0.0637
     31 H9         37.2060   -4.8429  -29.0912 H       1  <0>         0.0653
     32 H10        35.5632   -3.3321  -28.5470 H       1  <0>         0.0644
     33 H11        33.5976    2.7153  -26.5821 H       1  <0>         0.1453
     34 H12        34.3048    1.1677  -26.2587 H       1  <0>         0.1453
     35 H13        31.8565   -3.3772  -27.7210 H       1  <0>         0.1519
     36 H14        32.6882   -7.7913  -28.3514 H       1  <0>         0.1552
@<TRIPOS>BOND
     1     9    22    1
     2     3    29    1
     3     3     9   ar
     4     5     9   ar
     5     3     4   ar
     6     1    23    1
     7     5    31    1
     8     5    11   ar
     9     4    30    1
    10     4    10   ar
    11    10    11   ar
    12    11    14    1
    13    10    19    1
    14     6    32    1
    15    19    36    1
    16    15    19   am
    17     6    14    2
    18    14    15    1
    19     6    12    1
    20     2    26    1
    21     1     7    1
    22     1    25    1
    23     1    24    1
    24    15    20    2
    25    16    21    2
    26     7    12    2
    27    12    18    1
    28     7    13    1
    29    18    35    1
    30     8    18    1
    31     8    13    2
    32    13    16    1
    33     2     8    1
    34    16    17   am
    35     2    27    1
    36     2    28    1
    37    17    33    1
    38    17    34    1
@<TRIPOS>SUBSTRUCTURE
     1 <0>         1 TEMP              0 ****  ****    0 ROOT

