Z1907784975
  MJ210100                      

 24 26  0  0  0  0  0  0  0  0999 V2000
    0.0000   -1.6500    0.0000 C   0  0  0  0  0  0  0  0  0  0  0  0
    0.0000   -2.4750    0.0000 C   0  0  0  0  0  0  0  0  0  0  0  0
    0.6674   -2.9599    0.0000 C   0  0  0  0  0  0  0  0  0  0  0  0
    0.4125   -3.7445    0.0000 S   0  0  0  0  0  0  0  0  0  0  0  0
   -0.4125   -3.7445    0.0000 C   0  0  0  0  0  0  0  0  0  0  0  0
   -0.6674   -2.9599    0.0000 C   0  0  0  0  0  0  0  0  0  0  0  0
   -0.8974   -4.4119    0.0000 C   0  0  0  0  0  0  0  0  0  0  0  0
   -0.5618   -5.1656    0.0000 O   0  0  0  0  0  0  0  0  0  0  0  0
   -1.7179   -4.3257    0.0000 N   0  0  0  0  0  0  0  0  0  0  0  0
   -2.2028   -4.9931    0.0000 C   0  0  0  0  0  0  0  0  0  0  0  0
   -1.8672   -5.7468    0.0000 C   0  0  0  0  0  0  0  0  0  0  0  0
   -2.3522   -6.4143    0.0000 C   0  0  0  0  0  0  0  0  0  0  0  0
   -3.1726   -6.3280    0.0000 C   0  0  0  0  0  0  0  0  0  0  0  0
   -3.5082   -5.5743    0.0000 C   0  0  0  0  0  0  0  0  0  0  0  0
   -4.3287   -5.4881    0.0000 N   0  0  0  0  0  0  0  0  0  0  0  0
   -4.8807   -6.1012    0.0000 C   0  0  0  0  0  0  0  0  0  0  0  0
   -5.6344   -5.7656    0.0000 C   0  0  0  0  0  0  0  0  0  0  0  0
   -5.5481   -4.9452    0.0000 N   0  0  0  0  0  0  0  0  0  0  0  0
   -4.7412   -4.7736    0.0000 C   0  0  0  0  0  0  0  0  0  0  0  0
   -4.4056   -4.0200    0.0000 O   0  0  0  0  0  0  0  0  0  0  0  0
   -3.0233   -4.9069    0.0000 C   0  0  0  0  0  0  0  0  0  0  0  0
   -3.3588   -4.1532    0.0000 C   0  0  0  0  0  0  0  0  0  0  0  0
    1.4520   -2.7049    0.0000 C   0  0  0  0  0  0  0  0  0  0  0  0
    1.6235   -1.8980    0.0000 O   0  0  0  0  0  0  0  0  0  0  0  0
  1  2  1  0  0  0  0
  2  3  2  0  0  0  0
  3  4  1  0  0  0  0
  4  5  1  0  0  0  0
  5  6  2  0  0  0  0
  2  6  1  0  0  0  0
  5  7  1  0  0  0  0
  7  8  2  0  0  0  0
  7  9  1  0  0  0  0
  9 10  1  0  0  0  0
 10 11  2  0  0  0  0
 11 12  1  0  0  0  0
 12 13  2  0  0  0  0
 13 14  1  0  0  0  0
 14 15  1  0  0  0  0
 15 16  1  0  0  0  0
 16 17  1  0  0  0  0
 17 18  1  0  0  0  0
 18 19  1  0  0  0  0
 15 19  1  0  0  0  0
 19 20  2  0  0  0  0
 14 21  2  0  0  0  0
 10 21  1  0  0  0  0
 21 22  1  0  0  0  0
  3 23  1  0  0  0  0
 23 24  2  0  0  0  0
M  END
