Z5348530626
  MJ210100                      

 16 17  0  0  0  0  0  0  0  0999 V2000
    0.0000   -1.6500    0.0000 Br  0  0  0  0  0  0  0  0  0  0  0  0
    0.0000   -2.4750    0.0000 C   0  0  0  0  0  0  0  0  0  0  0  0
    0.6674   -2.9599    0.0000 C   0  0  0  0  0  0  0  0  0  0  0  0
    0.4125   -3.7445    0.0000 N   0  0  0  0  0  0  0  0  0  0  0  0
   -0.4125   -3.7445    0.0000 C   0  0  0  0  0  0  0  0  0  0  0  0
   -0.8974   -4.4119    0.0000 C   0  0  0  0  0  0  0  0  0  0  0  0
   -1.7179   -4.3257    0.0000 N   0  0  0  0  0  0  0  0  0  0  0  0
   -2.2028   -4.9931    0.0000 C   0  0  0  0  0  0  0  0  0  0  0  0
   -1.8672   -5.7468    0.0000 C   0  0  0  0  0  0  0  0  0  0  0  0
   -2.3522   -6.4143    0.0000 N   0  0  0  0  0  0  0  0  0  0  0  0
   -3.1726   -6.3280    0.0000 C   0  0  0  0  0  0  0  0  0  0  0  0
   -3.5082   -5.5743    0.0000 C   0  0  0  0  0  0  0  0  0  0  0  0
   -3.0233   -4.9069    0.0000 N   0  0  0  0  0  0  0  0  0  0  0  0
   -4.3287   -5.4881    0.0000 C   0  0  0  0  0  0  0  0  0  0  0  0
   -5.1491   -5.4019    0.0000 N   0  0  0  0  0  0  0  0  0  0  0  0
   -0.6674   -2.9599    0.0000 C   0  0  0  0  0  0  0  0  0  0  0  0
  1  2  1  0  0  0  0
  2  3  2  0  0  0  0
  3  4  1  0  0  0  0
  4  5  1  0  0  0  0
  5  6  1  0  0  0  0
  6  7  1  0  0  0  0
  7  8  1  0  0  0  0
  8  9  2  0  0  0  0
  9 10  1  0  0  0  0
 10 11  2  0  0  0  0
 11 12  1  0  0  0  0
 12 13  2  0  0  0  0
  8 13  1  0  0  0  0
 12 14  1  0  0  0  0
 14 15  3  0  0  0  0
  5 16  2  0  0  0  0
  2 16  1  0  0  0  0
M  END
