Z795161988
  MJ210100                      

 24 26  0  0  0  0  0  0  0  0999 V2000
   -2.1433    0.4125    0.0000 Br  0  0  0  0  0  0  0  0  0  0  0  0
   -1.4289    0.8250    0.0000 C   0  0  0  0  0  0  0  0  0  0  0  0
   -1.4289    1.6500    0.0000 C   0  0  0  0  0  0  0  0  0  0  0  0
   -0.7144    2.0625    0.0000 C   0  0  0  0  0  0  0  0  0  0  0  0
    0.0000    1.6500    0.0000 C   0  0  0  0  0  0  0  0  0  0  0  0
    0.7144    2.0625    0.0000 N   0  0  0  0  0  0  0  0  0  0  0  0
    1.4289    1.6500    0.0000 C   0  0  0  0  0  0  0  0  0  0  0  0
    1.4289    0.8250    0.0000 O   0  0  0  0  0  0  0  0  0  0  0  0
    2.1433    2.0625    0.0000 C   0  0  0  0  0  0  0  0  0  0  0  0
    2.8578    1.6500    0.0000 O   0  0  0  0  0  0  0  0  0  0  0  0
    3.5723    2.0625    0.0000 C   0  0  0  0  0  0  0  0  0  0  0  0
    3.5723    2.8875    0.0000 O   0  0  0  0  0  0  0  0  0  0  0  0
    4.2868    1.6500    0.0000 C   0  0  0  0  0  0  0  0  0  0  0  0
    5.0404    1.9855    0.0000 C   0  0  0  0  0  0  0  0  0  0  0  0
    5.5925    1.3724    0.0000 C   0  0  0  0  0  0  0  0  0  0  0  0
    5.1800    0.6580    0.0000 N   0  0  0  0  0  0  0  0  0  0  0  0
    4.3730    0.8295    0.0000 N   0  0  0  0  0  0  0  0  0  0  0  0
    6.4130    1.4586    0.0000 C   0  0  0  0  0  0  0  0  0  0  0  0
    6.8255    2.1731    0.0000 C   0  0  0  0  0  0  0  0  0  0  0  0
    7.6324    2.0016    0.0000 O   0  0  0  0  0  0  0  0  0  0  0  0
    7.7187    1.1811    0.0000 C   0  0  0  0  0  0  0  0  0  0  0  0
    6.9650    0.8456    0.0000 C   0  0  0  0  0  0  0  0  0  0  0  0
    0.0000    0.8250    0.0000 C   0  0  0  0  0  0  0  0  0  0  0  0
   -0.7144    0.4125    0.0000 C   0  0  0  0  0  0  0  0  0  0  0  0
  1  2  1  0  0  0  0
  2  3  2  0  0  0  0
  3  4  1  0  0  0  0
  4  5  2  0  0  0  0
  5  6  1  0  0  0  0
  6  7  1  0  0  0  0
  7  8  2  0  0  0  0
  7  9  1  0  0  0  0
  9 10  1  0  0  0  0
 10 11  1  0  0  0  0
 11 12  2  0  0  0  0
 11 13  1  0  0  0  0
 13 14  2  0  0  0  0
 14 15  1  0  0  0  0
 15 16  2  0  0  0  0
 16 17  1  0  0  0  0
 13 17  1  0  0  0  0
 15 18  1  0  0  0  0
 18 19  2  0  0  0  0
 19 20  1  0  0  0  0
 20 21  1  0  0  0  0
 21 22  2  0  0  0  0
 18 22  1  0  0  0  0
  5 23  1  0  0  0  0
 23 24  2  0  0  0  0
  2 24  1  0  0  0  0
M  END
