
##########                                Name:        DIH_301_3BGS
##########                    Molecular_Weight:             265.292
##########                DOCK_Rotatable_Bonds:                   5
##########                       Formal_Charge:              0.9997
##########                     HBond_Acceptors:                   7
##########                        HBond_Donors:                   5
##########                         Heavy_Atoms:                  19
##########                            HA_RMSDs:               0.722
##########                            HA_RMSDh:               0.722
##########                            HA_RMSDm:               0.722
##########                          Grid_Score:          -96.184013
##########                     Grid_vdw_energy:          -42.734821
##########                      Grid_es_energy:          -53.449192
##########           Internal_energy_repulsive:            3.954270

@<TRIPOS>MOLECULE
DIH_301_3BGS
 36 38 1 0 0
SMALL
USER_CHARGES


@<TRIPOS>ATOM
      1 C1         15.0780   12.5863   56.1650 C.2     1  <0>         0.0043
      2 C2         12.5724    8.8120   56.3920 C.2     1  <0>         0.0885
      3 C3         13.7023   11.6488   60.2856 C.3     1  <0>        -0.0239
      4 C4         15.1597   13.5279   60.0944 C.3     1  <0>        -0.0044
      5 C5         13.5024   12.9396   58.2206 C.3     1  <0>        -0.0025
      6 C6         15.6651   10.3608   60.9458 C.3     1  <0>         0.0544
      7 C7         14.0527   12.1720   57.0222 C.2     1  <0>         0.0381
      8 C8         14.4845   10.5488   55.4281 C.2     1  <0>         0.1200
      9 C9         13.6909   10.8288   56.5340 C.2     1  <0>         0.1008
     10 C10        14.2756    9.3100   54.8167 C.2     1  <0>         0.2651
     11 C11        14.7323   11.4945   61.3773 C.3     1  <0>         0.0531
     12 C12        15.3658   12.8810   61.4841 C.3     1  <0>         0.1046
     13 N1         15.3208   11.6248   55.2362 N.pl3   1  <0>        -0.3143
     14 N2         13.3195    8.4651   55.3272 N.am    1  <0>        -0.2713
     15 N3         12.7465    9.9609   57.0179 N.2     1  <0>        -0.2377
     16 N4         14.4198   12.5078   59.3046 N.4     1  <0>         0.2407
     17 O1         16.8393   10.8928   60.3387 O.3     1  <0>        -0.3944
     18 O2         14.6346   13.5922   62.5314 O.3     1  <0>        -0.3860
     19 O3         14.9641    8.9343   53.8288 O.2     1  <0>        -0.2684
     20 H1         15.5990   13.5300   56.2317 H       1  <0>         0.0787
     21 H2         11.8103    8.1321   56.7433 H       1  <0>         0.1001
     22 H3         13.4115   10.6806   59.8521 H       1  <0>         0.0819
     23 H4         12.7795   12.1221   60.6521 H       1  <0>         0.0819
     24 H5         14.5819   14.4604   60.1748 H       1  <0>         0.0840
     25 H6         16.1244   13.7681   59.6237 H       1  <0>         0.0840
     26 H7         13.5302   14.0280   58.0635 H       1  <0>         0.0868
     27 H8         12.4557   12.6778   58.4349 H       1  <0>         0.0868
     28 H9         15.9500    9.7704   61.8291 H       1  <0>         0.0562
     29 H10        15.1428    9.7179   60.2220 H       1  <0>         0.0562
     30 H11        14.3682   11.2080   62.3749 H       1  <0>         0.0402
     31 H12        16.4354   12.8836   61.7414 H       1  <0>         0.0652
     32 H13        16.0102   11.6898   54.5148 H       1  <0>         0.1518
     33 H14        13.1757    7.5732   54.8985 H       1  <0>         0.1560
     34 H15        15.1230   12.0414   58.7679 H       1  <0>         0.2038
     35 H16        17.0169   10.4271   59.5300 H       1  <0>         0.2094
     36 H17        14.8555   13.2235   63.3786 H       1  <0>         0.2100
@<TRIPOS>BOND
     1     1     7    2
     2     1    13    1
     3     2    14    1
     4     2    15    2
     5     3    11    1
     6     3    16    1
     7     4    12    1
     8     4    16    1
     9     5     7    1
    10     5    16    1
    11     6    11    1
    12     6    17    1
    13     7     9    1
    14     8     9    2
    15     8    10    1
    16     8    13    1
    17     9    15    1
    18    10    14   am
    19    10    19    2
    20    11    12    1
    21    12    18    1
    22     1    20    1
    23     2    21    1
    24     3    22    1
    25     3    23    1
    26     4    24    1
    27     4    25    1
    28     5    26    1
    29     5    27    1
    30     6    28    1
    31     6    29    1
    32    11    30    1
    33    12    31    1
    34    13    32    1
    35    14    33    1
    36    16    34    1
    37    17    35    1
    38    18    36    1
@<TRIPOS>SUBSTRUCTURE
     1 <0>         1 TEMP              0 ****  ****    0 ROOT

