
##########                                Name:        DIH_301_3BGS
##########                    Molecular_Weight:             265.292
##########                DOCK_Rotatable_Bonds:                   5
##########                       Formal_Charge:              0.9997
##########                     HBond_Acceptors:                   7
##########                        HBond_Donors:                   5
##########                         Heavy_Atoms:                  19
##########                            HA_RMSDs:               0.584
##########                            HA_RMSDh:               0.584
##########                            HA_RMSDm:               0.584
##########                          Grid_Score:          -96.737396
##########                     Grid_vdw_energy:          -43.551304
##########                      Grid_es_energy:          -53.186096
##########           Internal_energy_repulsive:            5.180087

@<TRIPOS>MOLECULE
DIH_301_3BGS
 36 38 1 0 0
SMALL
USER_CHARGES


@<TRIPOS>ATOM
      1 C1         15.2000   12.7762   55.8599 C.2     1  <0>         0.0043
      2 C2         12.7419    9.0076   56.4342 C.2     1  <0>         0.0885
      3 C3         13.9141   11.6125   59.8980 C.3     1  <0>        -0.0239
      4 C4         15.3287   13.5242   60.0883 C.3     1  <0>        -0.0044
      5 C5         13.8157   13.1935   58.0375 C.3     1  <0>        -0.0025
      6 C6         15.8638   10.2748   60.4953 C.3     1  <0>         0.0544
      7 C7         14.2585   12.3884   56.8194 C.2     1  <0>         0.0381
      8 C8         14.5511   10.7151   55.2456 C.2     1  <0>         0.1200
      9 C9         13.8599   11.0296   56.4094 C.2     1  <0>         0.1008
     10 C10        14.2931    9.4569   54.6958 C.2     1  <0>         0.2651
     11 C11        14.8736   11.3149   61.0237 C.3     1  <0>         0.0531
     12 C12        15.4602   12.6807   61.3781 C.3     1  <0>         0.1046
     13 N1         15.3619   11.7855   54.9442 N.pl3   1  <0>        -0.3143
     14 N2         13.3910    8.6275   55.3177 N.am    1  <0>        -0.2713
     15 N3         12.9670   10.1764   57.0045 N.2     1  <0>        -0.2377
     16 N4         14.6710   12.6208   59.1069 N.4     1  <0>         0.2407
     17 O1         16.9880   10.9204   59.9040 O.3     1  <0>        -0.3944
     18 O2         14.6420   13.2147   62.4656 O.3     1  <0>        -0.3860
     19 O3         14.8909    9.0504   53.6620 O.2     1  <0>        -0.2684
     20 H1         15.7208   13.7224   55.8488 H       1  <0>         0.0787
     21 H2         12.0178    8.3383   56.8749 H       1  <0>         0.1001
     22 H3         13.6794   10.7150   59.3070 H       1  <0>         0.0819
     23 H4         12.9564   12.0097   60.2654 H       1  <0>         0.0819
     24 H5         14.7213   14.4241   60.2653 H       1  <0>         0.0840
     25 H6         16.3154   13.8488   59.7265 H       1  <0>         0.0840
     26 H7         13.9853   14.2723   57.9049 H       1  <0>         0.0868
     27 H8         12.7442   13.0659   58.2512 H       1  <0>         0.0868
     28 H9         16.2057    9.6441   61.3291 H       1  <0>         0.0562
     29 H10        15.3648    9.6516   59.7387 H       1  <0>         0.0562
     30 H11        14.4523   10.8764   61.9403 H       1  <0>         0.0402
     31 H12        16.5099   12.6636   61.7066 H       1  <0>         0.0652
     32 H13        15.9828   11.8282   54.1615 H       1  <0>         0.1518
     33 H14        13.2128    7.7220   54.9326 H       1  <0>         0.1560
     34 H15        15.4207   12.2521   58.5574 H       1  <0>         0.2038
     35 H16        17.6308   10.2685   59.6505 H       1  <0>         0.2094
     36 H17        14.6803   12.6256   63.2099 H       1  <0>         0.2100
@<TRIPOS>BOND
     1     1     7    2
     2     1    13    1
     3     2    14    1
     4     2    15    2
     5     3    11    1
     6     3    16    1
     7     4    12    1
     8     4    16    1
     9     5     7    1
    10     5    16    1
    11     6    11    1
    12     6    17    1
    13     7     9    1
    14     8     9    2
    15     8    10    1
    16     8    13    1
    17     9    15    1
    18    10    14   am
    19    10    19    2
    20    11    12    1
    21    12    18    1
    22     1    20    1
    23     2    21    1
    24     3    22    1
    25     3    23    1
    26     4    24    1
    27     4    25    1
    28     5    26    1
    29     5    27    1
    30     6    28    1
    31     6    29    1
    32    11    30    1
    33    12    31    1
    34    13    32    1
    35    14    33    1
    36    16    34    1
    37    17    35    1
    38    18    36    1
@<TRIPOS>SUBSTRUCTURE
     1 <0>         1 TEMP              0 ****  ****    0 ROOT

