
##########                                Name:        DIH_301_3BGS
##########                    Molecular_Weight:             265.292
##########                DOCK_Rotatable_Bonds:                   5
##########                       Formal_Charge:              0.9997
##########                     HBond_Acceptors:                   7
##########                        HBond_Donors:                   5
##########                         Heavy_Atoms:                  19
##########                            HA_RMSDs:               0.418
##########                            HA_RMSDh:               0.418
##########                            HA_RMSDm:               0.418
##########                          Grid_Score:          -94.722427
##########                     Grid_vdw_energy:          -41.031841
##########                      Grid_es_energy:          -53.690586
##########           Internal_energy_repulsive:            4.003477

@<TRIPOS>MOLECULE
DIH_301_3BGS
 36 38 1 0 0
SMALL
USER_CHARGES


@<TRIPOS>ATOM
      1 C1         15.1123   12.6484   56.1215 C.2     1  <0>         0.0043
      2 C2         12.9480    8.6652   55.9626 C.2     1  <0>         0.0885
      3 C3         14.1633   11.5822   60.0434 C.3     1  <0>        -0.0239
      4 C4         14.6726   13.9103   59.9343 C.3     1  <0>        -0.0044
      5 C5         13.3567   12.7517   58.0554 C.3     1  <0>        -0.0025
      6 C6         16.5106   11.2299   60.6033 C.3     1  <0>         0.0544
      7 C7         14.0653   12.1010   56.8711 C.2     1  <0>         0.0381
      8 C8         14.7642   10.6105   55.2425 C.2     1  <0>         0.1200
      9 C9         13.8653   10.7603   56.2916 C.2     1  <0>         0.1008
     10 C10        14.7160    9.3936   54.5578 C.2     1  <0>         0.2651
     11 C11        15.2000   11.8360   61.1099 C.3     1  <0>         0.0531
     12 C12        15.1855   13.3541   61.2833 C.3     1  <0>         0.1046
     13 N1         15.5122   11.7635   55.1711 N.pl3   1  <0>        -0.3143
     14 N2         13.8036    8.4427   54.9475 N.am    1  <0>        -0.2713
     15 N3         12.9686    9.7890   56.6546 N.2     1  <0>        -0.2377
     16 N4         14.4097   12.7071   59.1006 N.4     1  <0>         0.2407
     17 O1         17.2940   12.2252   59.9506 O.3     1  <0>        -0.3944
     18 O2         14.2598   13.6382   62.3786 O.3     1  <0>        -0.3860
     19 O3         15.5102    9.1332   53.6129 O.2     1  <0>        -0.2684
     20 H1         15.5391   13.6285   56.2755 H       1  <0>         0.0787
     21 H2         12.2255    7.9040   56.2177 H       1  <0>         0.1001
     22 H3         14.2973   10.6024   59.5618 H       1  <0>         0.0819
     23 H4         13.1409   11.5991   60.4488 H       1  <0>         0.0819
     24 H5         13.7557   14.5018   60.0741 H       1  <0>         0.0840
     25 H6         15.4249   14.5602   59.4635 H       1  <0>         0.0840
     26 H7         13.0375   13.7806   57.8328 H       1  <0>         0.0868
     27 H8         12.4539   12.1981   58.3530 H       1  <0>         0.0868
     28 H9         17.0760   10.8257   61.4559 H       1  <0>         0.0562
     29 H10        16.2847   10.4225   59.8913 H       1  <0>         0.0562
     30 H11        15.0296   11.3784   62.0955 H       1  <0>         0.0402
     31 H12        16.1605   13.8027   61.5247 H       1  <0>         0.0652
     32 H13        16.2467   11.9271   54.5125 H       1  <0>         0.1518
     33 H14        13.7746    7.5665   54.4665 H       1  <0>         0.1560
     34 H15        15.2244   12.6100   58.5290 H       1  <0>         0.2038
     35 H16        18.0077   11.8095   59.4812 H       1  <0>         0.2094
     36 H17        14.6817   13.4469   63.2080 H       1  <0>         0.2100
@<TRIPOS>BOND
     1     1     7    2
     2     1    13    1
     3     2    14    1
     4     2    15    2
     5     3    11    1
     6     3    16    1
     7     4    12    1
     8     4    16    1
     9     5     7    1
    10     5    16    1
    11     6    11    1
    12     6    17    1
    13     7     9    1
    14     8     9    2
    15     8    10    1
    16     8    13    1
    17     9    15    1
    18    10    14   am
    19    10    19    2
    20    11    12    1
    21    12    18    1
    22     1    20    1
    23     2    21    1
    24     3    22    1
    25     3    23    1
    26     4    24    1
    27     4    25    1
    28     5    26    1
    29     5    27    1
    30     6    28    1
    31     6    29    1
    32    11    30    1
    33    12    31    1
    34    13    32    1
    35    14    33    1
    36    16    34    1
    37    17    35    1
    38    18    36    1
@<TRIPOS>SUBSTRUCTURE
     1 <0>         1 TEMP              0 ****  ****    0 ROOT

