
##########                                Name:        DIH_301_3BGS
##########                    Molecular_Weight:             265.292
##########                DOCK_Rotatable_Bonds:                   5
##########                       Formal_Charge:              0.9997
##########                     HBond_Acceptors:                   7
##########                        HBond_Donors:                   5
##########                         Heavy_Atoms:                  19
##########                            HA_RMSDs:               0.642
##########                            HA_RMSDh:               0.642
##########                            HA_RMSDm:               0.642
##########                          Grid_Score:          -96.084267
##########                     Grid_vdw_energy:          -44.308815
##########                      Grid_es_energy:          -51.775452
##########           Internal_energy_repulsive:            3.842282

@<TRIPOS>MOLECULE
DIH_301_3BGS
 36 38 1 0 0
SMALL
USER_CHARGES


@<TRIPOS>ATOM
      1 C1         14.9702   12.7788   56.4543 C.2     1  <0>         0.0043
      2 C2         12.9451    8.7329   56.1316 C.2     1  <0>         0.0885
      3 C3         14.3857   11.6267   60.3972 C.3     1  <0>        -0.0239
      4 C4         14.6882   13.9859   60.2126 C.3     1  <0>        -0.0044
      5 C5         13.3134   12.6856   58.4739 C.3     1  <0>        -0.0025
      6 C6         16.7942   11.4787   60.7501 C.3     1  <0>         0.0544
      7 C7         13.9833   12.1426   57.2151 C.2     1  <0>         0.0381
      8 C8         14.6510   10.7912   55.4573 C.2     1  <0>         0.1200
      9 C9         13.8022   10.8361   56.5566 C.2     1  <0>         0.1008
     10 C10        14.6116    9.6210   54.6949 C.2     1  <0>         0.2651
     11 C11        15.4874   11.9860   61.3635 C.3     1  <0>         0.0531
     12 C12        15.3621   13.5011   61.5177 C.3     1  <0>         0.1046
     13 N1         15.3525   11.9748   55.4278 N.pl3   1  <0>        -0.3143
     14 N2         13.7551    8.6115   55.0633 N.am    1  <0>        -0.2713
     15 N3         12.9607    9.8086   56.8962 N.2     1  <0>        -0.2377
     16 N4         14.4541   12.7485   59.4215 N.4     1  <0>         0.2407
     17 O1         17.4795   12.5448   60.0989 O.3     1  <0>        -0.3944
     18 O2         14.5157   13.7310   62.6873 O.3     1  <0>        -0.3860
     19 O3         15.3652    9.4547   53.6971 O.2     1  <0>        -0.2684
     20 H1         15.3689   13.7626   56.6533 H       1  <0>         0.0787
     21 H2         12.2645    7.9287   56.3694 H       1  <0>         0.1001
     22 H3         14.5579   10.6515   59.9184 H       1  <0>         0.0819
     23 H4         13.4050   11.5684   60.8919 H       1  <0>         0.0819
     24 H5         13.7412   14.5033   60.4259 H       1  <0>         0.0840
     25 H6         15.3397   14.6852   59.6681 H       1  <0>         0.0840
     26 H7         12.8582   13.6731   58.3077 H       1  <0>         0.0868
     27 H8         12.5114   12.0245   58.8343 H       1  <0>         0.0868
     28 H9         17.4336   11.0704   61.5467 H       1  <0>         0.0562
     29 H10        16.5679   10.6917   60.0157 H       1  <0>         0.0562
     30 H11        15.4428   11.5362   62.3663 H       1  <0>         0.0402
     31 H12        16.3138   14.0326   61.6652 H       1  <0>         0.0652
     32 H13        16.0460   12.2101   54.7468 H       1  <0>         0.1518
     33 H14        13.7330    7.7683   54.5260 H       1  <0>         0.1560
     34 H15        15.2207   12.7065   58.7808 H       1  <0>         0.2038
     35 H16        18.4081   12.3480   60.0601 H       1  <0>         0.2094
     36 H17        14.7968   13.1668   63.3980 H       1  <0>         0.2100
@<TRIPOS>BOND
     1     1     7    2
     2     1    13    1
     3     2    14    1
     4     2    15    2
     5     3    11    1
     6     3    16    1
     7     4    12    1
     8     4    16    1
     9     5     7    1
    10     5    16    1
    11     6    11    1
    12     6    17    1
    13     7     9    1
    14     8     9    2
    15     8    10    1
    16     8    13    1
    17     9    15    1
    18    10    14   am
    19    10    19    2
    20    11    12    1
    21    12    18    1
    22     1    20    1
    23     2    21    1
    24     3    22    1
    25     3    23    1
    26     4    24    1
    27     4    25    1
    28     5    26    1
    29     5    27    1
    30     6    28    1
    31     6    29    1
    32    11    30    1
    33    12    31    1
    34    13    32    1
    35    14    33    1
    36    16    34    1
    37    17    35    1
    38    18    36    1
@<TRIPOS>SUBSTRUCTURE
     1 <0>         1 TEMP              0 ****  ****    0 ROOT

