
##########                                Name:        DIH_301_3BGS
##########                    Molecular_Weight:             265.292
##########                DOCK_Rotatable_Bonds:                   5
##########                       Formal_Charge:              0.9997
##########                     HBond_Acceptors:                   7
##########                        HBond_Donors:                   5
##########                         Heavy_Atoms:                  19
##########                            HA_RMSDs:               0.636
##########                            HA_RMSDh:               0.636
##########                            HA_RMSDm:               0.636
##########                          Grid_Score:          -95.902161
##########                     Grid_vdw_energy:          -42.856590
##########                      Grid_es_energy:          -53.045567
##########           Internal_energy_repulsive:            5.192866

@<TRIPOS>MOLECULE
DIH_301_3BGS
 36 38 1 0 0
SMALL
USER_CHARGES


@<TRIPOS>ATOM
      1 C1         15.2629   12.6298   55.8697 C.2     1  <0>         0.0043
      2 C2         12.7139    8.9230   56.4496 C.2     1  <0>         0.0885
      3 C3         13.9135   11.4610   59.8900 C.3     1  <0>        -0.0239
      4 C4         15.3979   13.3127   60.1333 C.3     1  <0>        -0.0044
      5 C5         13.9026   13.0763   58.0566 C.3     1  <0>        -0.0025
      6 C6         15.8014   10.0386   60.4899 C.3     1  <0>         0.0544
      7 C7         14.3176   12.2634   56.8339 C.2     1  <0>         0.0381
      8 C8         14.5585   10.5873   55.2543 C.2     1  <0>         0.1200
      9 C9         13.8824   10.9162   56.4230 C.2     1  <0>         0.1008
     10 C10        14.2655    9.3375   54.7029 C.2     1  <0>         0.2651
     11 C11        14.8447   11.1071   61.0232 C.3     1  <0>         0.0531
     12 C12        15.4784   12.4428   61.4096 C.3     1  <0>         0.1046
     13 N1         15.3943   11.6377   54.9506 N.pl3   1  <0>        -0.3143
     14 N2         13.3464    8.5295   55.3283 N.am    1  <0>        -0.2713
     15 N3         12.9718   10.0842   57.0214 N.2     1  <0>        -0.2377
     16 N4         14.7198   12.4525   59.1272 N.4     1  <0>         0.2407
     17 O1         16.9987   10.6441   60.0104 O.3     1  <0>        -0.3944
     18 O2         14.6661   12.9894   62.4952 O.3     1  <0>        -0.3860
     19 O3         14.8467    8.9188   53.6646 O.2     1  <0>        -0.2684
     20 H1         15.8073   13.5625   55.8577 H       1  <0>         0.0787
     21 H2         11.9757    8.2711   56.8930 H       1  <0>         0.1001
     22 H3         13.6528   10.5835   59.2801 H       1  <0>         0.0819
     23 H4         12.9667   11.8887   60.2513 H       1  <0>         0.0819
     24 H5         14.8232   14.2324   60.3179 H       1  <0>         0.0840
     25 H6         16.4014   13.6050   59.7906 H       1  <0>         0.0840
     26 H7         14.1246   14.1470   57.9370 H       1  <0>         0.0868
     27 H8         12.8243   12.9978   58.2597 H       1  <0>         0.0868
     28 H9         16.0496    9.3378   61.3006 H       1  <0>         0.0562
     29 H10        15.3150    9.4959   59.6660 H       1  <0>         0.0562
     30 H11        14.3938   10.6696   61.9261 H       1  <0>         0.0402
     31 H12        16.5219   12.3793   61.7519 H       1  <0>         0.0652
     32 H13        16.0113   11.6668   54.1642 H       1  <0>         0.1518
     33 H14        13.1432    7.6298   54.9421 H       1  <0>         0.1560
     34 H15        15.4625   12.0645   58.5814 H       1  <0>         0.2038
     35 H16        17.5607    9.9787   59.6312 H       1  <0>         0.2094
     36 H17        14.6909   12.3983   63.2385 H       1  <0>         0.2100
@<TRIPOS>BOND
     1     1     7    2
     2     1    13    1
     3     2    14    1
     4     2    15    2
     5     3    11    1
     6     3    16    1
     7     4    12    1
     8     4    16    1
     9     5     7    1
    10     5    16    1
    11     6    11    1
    12     6    17    1
    13     7     9    1
    14     8     9    2
    15     8    10    1
    16     8    13    1
    17     9    15    1
    18    10    14   am
    19    10    19    2
    20    11    12    1
    21    12    18    1
    22     1    20    1
    23     2    21    1
    24     3    22    1
    25     3    23    1
    26     4    24    1
    27     4    25    1
    28     5    26    1
    29     5    27    1
    30     6    28    1
    31     6    29    1
    32    11    30    1
    33    12    31    1
    34    13    32    1
    35    14    33    1
    36    16    34    1
    37    17    35    1
    38    18    36    1
@<TRIPOS>SUBSTRUCTURE
     1 <0>         1 TEMP              0 ****  ****    0 ROOT

