
##########                                Name:        DIH_301_3BGS
##########                    Molecular_Weight:             265.292
##########                DOCK_Rotatable_Bonds:                   5
##########                       Formal_Charge:              0.9997
##########                     HBond_Acceptors:                   7
##########                        HBond_Donors:                   5
##########                         Heavy_Atoms:                  19
##########                            HA_RMSDs:               0.563
##########                            HA_RMSDh:               0.563
##########                            HA_RMSDm:               0.563
##########                          Grid_Score:          -94.400101
##########                     Grid_vdw_energy:          -42.392624
##########                      Grid_es_energy:          -52.007477
##########           Internal_energy_repulsive:            3.786406

@<TRIPOS>MOLECULE
DIH_301_3BGS
 36 38 1 0 0
SMALL
USER_CHARGES


@<TRIPOS>ATOM
      1 C1         14.9685   12.8416   56.4058 C.2     1  <0>         0.0043
      2 C2         12.9510    8.7906   56.0987 C.2     1  <0>         0.0885
      3 C3         14.1804   11.4656   60.3306 C.3     1  <0>        -0.0239
      4 C4         14.7501   13.7821   60.3044 C.3     1  <0>        -0.0044
      5 C5         13.3231   12.7467   58.4347 C.3     1  <0>        -0.0025
      6 C6         16.5385   11.0263   60.7704 C.3     1  <0>         0.0544
      7 C7         13.9873   12.2039   57.1728 C.2     1  <0>         0.0381
      8 C8         14.6483   10.8521   55.4127 C.2     1  <0>         0.1200
      9 C9         13.8056   10.8963   56.5167 C.2     1  <0>         0.1008
     10 C10        14.6075    9.6811   54.6518 C.2     1  <0>         0.2651
     11 C11        15.2684   11.6425   61.3608 C.3     1  <0>         0.0531
     12 C12        15.3042   13.1508   61.6031 C.3     1  <0>         0.1046
     13 N1         15.3469   12.0374   55.3781 N.pl3   1  <0>        -0.3143
     14 N2         13.7553    8.6699   55.0260 N.am    1  <0>        -0.2713
     15 N3         12.9683    9.8672   56.8621 N.2     1  <0>        -0.2377
     16 N4         14.4180   12.6261   59.4296 N.4     1  <0>         0.2407
     17 O1         17.4007   12.0493   60.2801 O.3     1  <0>        -0.3944
     18 O2         14.4345   13.4081   62.7496 O.3     1  <0>        -0.3860
     19 O3         15.3559    9.5155   53.6500 O.2     1  <0>        -0.2684
     20 H1         15.3660   13.8265   56.6016 H       1  <0>         0.0787
     21 H2         12.2736    7.9851   56.3411 H       1  <0>         0.1001
     22 H3         14.2660   10.5060   59.7998 H       1  <0>         0.0819
     23 H4         13.1771   11.4906   60.7808 H       1  <0>         0.0819
     24 H5         13.8571   14.3904   60.5108 H       1  <0>         0.0840
     25 H6         15.4997   14.4331   59.8307 H       1  <0>         0.0840
     26 H7         12.9882   13.7872   58.3116 H       1  <0>         0.0868
     27 H8         12.4370   12.1611   58.7209 H       1  <0>         0.0868
     28 H9         17.0615   10.4560   61.5522 H       1  <0>         0.0562
     29 H10        16.2646   10.3561   59.9423 H       1  <0>         0.0562
     30 H11        15.1273   11.1443   62.3313 H       1  <0>         0.0402
     31 H12        16.3009   13.5620   61.8214 H       1  <0>         0.0652
     32 H13        16.0361   12.2736   54.6930 H       1  <0>         0.1518
     33 H14        13.7322    7.8261   54.4898 H       1  <0>         0.1560
     34 H15        15.2045   12.5342   58.8189 H       1  <0>         0.2038
     35 H16        18.3005   11.7459   60.3081 H       1  <0>         0.2094
     36 H17        14.7220   12.8859   63.4893 H       1  <0>         0.2100
@<TRIPOS>BOND
     1     1     7    2
     2     1    13    1
     3     2    14    1
     4     2    15    2
     5     3    11    1
     6     3    16    1
     7     4    12    1
     8     4    16    1
     9     5     7    1
    10     5    16    1
    11     6    11    1
    12     6    17    1
    13     7     9    1
    14     8     9    2
    15     8    10    1
    16     8    13    1
    17     9    15    1
    18    10    14   am
    19    10    19    2
    20    11    12    1
    21    12    18    1
    22     1    20    1
    23     2    21    1
    24     3    22    1
    25     3    23    1
    26     4    24    1
    27     4    25    1
    28     5    26    1
    29     5    27    1
    30     6    28    1
    31     6    29    1
    32    11    30    1
    33    12    31    1
    34    13    32    1
    35    14    33    1
    36    16    34    1
    37    17    35    1
    38    18    36    1
@<TRIPOS>SUBSTRUCTURE
     1 <0>         1 TEMP              0 ****  ****    0 ROOT

