
##########                                Name:        DIH_301_3BGS
##########                    Molecular_Weight:             265.292
##########                DOCK_Rotatable_Bonds:                   5
##########                       Formal_Charge:              0.9997
##########                     HBond_Acceptors:                   7
##########                        HBond_Donors:                   5
##########                         Heavy_Atoms:                  19
##########                            HA_RMSDs:               0.555
##########                            HA_RMSDh:               0.555
##########                            HA_RMSDm:               0.555
##########                          Grid_Score:          -95.558029
##########                     Grid_vdw_energy:          -42.897285
##########                      Grid_es_energy:          -52.660740
##########           Internal_energy_repulsive:            5.516143

@<TRIPOS>MOLECULE
DIH_301_3BGS
 36 38 1 0 0
SMALL
USER_CHARGES


@<TRIPOS>ATOM
      1 C1         15.1574   12.7513   56.2965 C.2     1  <0>         0.0043
      2 C2         12.8692    8.8350   56.3238 C.2     1  <0>         0.0885
      3 C3         14.3721   11.6736   60.2640 C.3     1  <0>        -0.0239
      4 C4         14.9939   13.9753   60.1778 C.3     1  <0>        -0.0044
      5 C5         13.5363   12.9261   58.3396 C.3     1  <0>        -0.0025
      6 C6         16.7215   11.1921   60.7065 C.3     1  <0>         0.0544
      7 C7         14.1460   12.2432   57.1189 C.2     1  <0>         0.0381
      8 C8         14.6917   10.7171   55.4649 C.2     1  <0>         0.1200
      9 C9         13.8684   10.9039   56.5687 C.2     1  <0>         0.1008
     10 C10        14.5624    9.4960   54.7985 C.2     1  <0>         0.2651
     11 C11        15.4680   11.8515   61.2857 C.3     1  <0>         0.0531
     12 C12        15.5388   13.3642   61.4900 C.3     1  <0>         0.1046
     13 N1         15.4676   11.8460   55.3320 N.pl3   1  <0>        -0.3143
     14 N2         13.6494    8.5771   55.2575 N.am    1  <0>        -0.2713
     15 N3         12.9687    9.9639   57.0003 N.2     1  <0>        -0.2377
     16 N4         14.6322   12.8056   59.3334 N.4     1  <0>         0.2407
     17 O1         17.3184   12.0409   59.7301 O.3     1  <0>        -0.3944
     18 O2         14.6797   13.6697   62.6328 O.3     1  <0>        -0.3860
     19 O3         15.2847    9.2028   53.8068 O.2     1  <0>        -0.2684
     20 H1         15.6226   13.7193   56.4114 H       1  <0>         0.0787
     21 H2         12.1426    8.0985   56.6339 H       1  <0>         0.1001
     22 H3         14.4339   10.6994   59.7571 H       1  <0>         0.0819
     23 H4         13.3714   11.7326   60.7169 H       1  <0>         0.0819
     24 H5         14.1157   14.6086   60.3720 H       1  <0>         0.0840
     25 H6         15.7560   14.5971   59.6854 H       1  <0>         0.0840
     26 H7         13.2728   13.9750   58.1389 H       1  <0>         0.0868
     27 H8         12.6153   12.4276   58.6762 H       1  <0>         0.0868
     28 H9         17.4423   11.0101   61.5172 H       1  <0>         0.0562
     29 H10        16.4437   10.2378   60.2354 H       1  <0>         0.0562
     30 H11        15.3196   11.3810   62.2689 H       1  <0>         0.0402
     31 H12        16.5454   13.7580   61.6945 H       1  <0>         0.0652
     32 H13        16.1619   11.9810   54.6251 H       1  <0>         0.1518
     33 H14        13.5628    7.6977   54.7892 H       1  <0>         0.1560
     34 H15        15.4140   12.6806   58.7225 H       1  <0>         0.2038
     35 H16        17.9184   11.5352   59.1946 H       1  <0>         0.2094
     36 H17        14.8857   13.0822   63.3503 H       1  <0>         0.2100
@<TRIPOS>BOND
     1     1     7    2
     2     1    13    1
     3     2    14    1
     4     2    15    2
     5     3    11    1
     6     3    16    1
     7     4    12    1
     8     4    16    1
     9     5     7    1
    10     5    16    1
    11     6    11    1
    12     6    17    1
    13     7     9    1
    14     8     9    2
    15     8    10    1
    16     8    13    1
    17     9    15    1
    18    10    14   am
    19    10    19    2
    20    11    12    1
    21    12    18    1
    22     1    20    1
    23     2    21    1
    24     3    22    1
    25     3    23    1
    26     4    24    1
    27     4    25    1
    28     5    26    1
    29     5    27    1
    30     6    28    1
    31     6    29    1
    32    11    30    1
    33    12    31    1
    34    13    32    1
    35    14    33    1
    36    16    34    1
    37    17    35    1
    38    18    36    1
@<TRIPOS>SUBSTRUCTURE
     1 <0>         1 TEMP              0 ****  ****    0 ROOT

