
##########                                Name:        DIH_301_3BGS
##########                    Molecular_Weight:             265.292
##########                DOCK_Rotatable_Bonds:                   5
##########                       Formal_Charge:              0.9997
##########                     HBond_Acceptors:                   7
##########                        HBond_Donors:                   5
##########                         Heavy_Atoms:                  19
##########                            HA_RMSDs:               0.997
##########                            HA_RMSDh:               0.997
##########                            HA_RMSDm:               0.995
##########                          Grid_Score:          -96.192902
##########                     Grid_vdw_energy:          -43.055283
##########                      Grid_es_energy:          -53.137615
##########           Internal_energy_repulsive:            3.560095

@<TRIPOS>MOLECULE
DIH_301_3BGS
 36 38 1 0 0
SMALL
USER_CHARGES


@<TRIPOS>ATOM
      1 C1         15.1544   12.8138   56.0032 C.2     1  <0>         0.0043
      2 C2         12.7912    8.9666   56.4376 C.2     1  <0>         0.0885
      3 C3         13.8455   12.2070   60.4216 C.3     1  <0>        -0.0239
      4 C4         15.7502   13.4555   59.7113 C.3     1  <0>        -0.0044
      5 C5         13.7219   13.1372   58.1656 C.3     1  <0>        -0.0025
      6 C6         15.4103   10.4795   61.1388 C.3     1  <0>         0.0544
      7 C7         14.2075   12.3761   56.9355 C.2     1  <0>         0.0381
      8 C8         14.5730   10.7525   55.3253 C.2     1  <0>         0.1200
      9 C9         13.8535   11.0181   56.4841 C.2     1  <0>         0.1008
     10 C10        14.3590    9.5025   54.7392 C.2     1  <0>         0.2651
     11 C11        14.9390   11.9083   61.4174 C.3     1  <0>         0.0531
     12 C12        15.9671   13.0130   61.1773 C.3     1  <0>         0.1046
     13 N1         15.3591   11.8519   55.0657 N.pl3   1  <0>        -0.3143
     14 N2         13.4695    8.6332   55.3237 N.am    1  <0>        -0.2713
     15 N3         12.9743   10.1260   57.0414 N.2     1  <0>        -0.2377
     16 N4         14.6251   12.6151   59.2214 N.4     1  <0>         0.2407
     17 O1         16.8299   10.4017   61.2325 O.3     1  <0>        -0.3944
     18 O2         15.6550   14.0835   62.1228 O.3     1  <0>        -0.3860
     19 O3         14.9855    9.1391   53.7063 O.2     1  <0>        -0.2684
     20 H1         15.6491   13.7737   56.0253 H       1  <0>         0.0787
     21 H2         12.0782    8.2669   56.8482 H       1  <0>         0.1001
     22 H3         13.2143   11.3278   60.2251 H       1  <0>         0.0819
     23 H4         13.1757   13.0066   60.7709 H       1  <0>         0.0819
     24 H5         15.4980   14.5248   59.6548 H       1  <0>         0.0840
     25 H6         16.6569   13.2905   59.1107 H       1  <0>         0.0840
     26 H7         13.8152   14.2263   58.0422 H       1  <0>         0.0868
     27 H8         12.6640   12.9337   58.3876 H       1  <0>         0.0868
     28 H9         14.9609    9.7994   61.8774 H       1  <0>         0.0562
     29 H10        15.0978   10.1862   60.1257 H       1  <0>         0.0562
     30 H11        14.6659   11.9221   62.4829 H       1  <0>         0.0402
     31 H12        17.0147   12.7115   61.3244 H       1  <0>         0.0652
     32 H13        15.9920   11.9315   54.2955 H       1  <0>         0.1518
     33 H14        13.3229    7.7335   54.9126 H       1  <0>         0.1560
     34 H15        15.0638   11.8653   58.7261 H       1  <0>         0.2038
     35 H16        17.0927    9.4927   61.3177 H       1  <0>         0.2094
     36 H17        15.7295   13.7542   63.0107 H       1  <0>         0.2100
@<TRIPOS>BOND
     1     1     7    2
     2     1    13    1
     3     2    14    1
     4     2    15    2
     5     3    11    1
     6     3    16    1
     7     4    12    1
     8     4    16    1
     9     5     7    1
    10     5    16    1
    11     6    11    1
    12     6    17    1
    13     7     9    1
    14     8     9    2
    15     8    10    1
    16     8    13    1
    17     9    15    1
    18    10    14   am
    19    10    19    2
    20    11    12    1
    21    12    18    1
    22     1    20    1
    23     2    21    1
    24     3    22    1
    25     3    23    1
    26     4    24    1
    27     4    25    1
    28     5    26    1
    29     5    27    1
    30     6    28    1
    31     6    29    1
    32    11    30    1
    33    12    31    1
    34    13    32    1
    35    14    33    1
    36    16    34    1
    37    17    35    1
    38    18    36    1
@<TRIPOS>SUBSTRUCTURE
     1 <0>         1 TEMP              0 ****  ****    0 ROOT

