
##########                                Name:        DIH_301_3BGS
##########                    Molecular_Weight:             265.292
##########                DOCK_Rotatable_Bonds:                   5
##########                       Formal_Charge:              0.9997
##########                     HBond_Acceptors:                   7
##########                        HBond_Donors:                   5
##########                         Heavy_Atoms:                  19
##########                            HA_RMSDs:               0.471
##########                            HA_RMSDh:               0.471
##########                            HA_RMSDm:               0.471
##########                          Grid_Score:          -95.833839
##########                     Grid_vdw_energy:          -42.725170
##########                      Grid_es_energy:          -53.108669
##########           Internal_energy_repulsive:            4.661177

@<TRIPOS>MOLECULE
DIH_301_3BGS
 36 38 1 0 0
SMALL
USER_CHARGES


@<TRIPOS>ATOM
      1 C1         15.1811   12.7246   55.9725 C.2     1  <0>         0.0043
      2 C2         12.7621    8.9179   56.4544 C.2     1  <0>         0.0885
      3 C3         14.2228   11.4699   59.9094 C.3     1  <0>        -0.0239
      4 C4         15.2168   13.6203   60.1910 C.3     1  <0>        -0.0044
      5 C5         13.7642   13.0899   58.1385 C.3     1  <0>        -0.0025
      6 C6         16.4175   10.5352   60.4163 C.3     1  <0>         0.0544
      7 C7         14.2322   12.3100   56.9134 C.2     1  <0>         0.0381
      8 C8         14.5652   10.6661   55.3169 C.2     1  <0>         0.1200
      9 C9         13.8555   10.9533   56.4765 C.2     1  <0>         0.1008
     10 C10        14.3296    9.4140   54.7436 C.2     1  <0>         0.2651
     11 C11        15.2450   11.3197   61.0090 C.3     1  <0>         0.0531
     12 C12        15.5446   12.7571   61.4319 C.3     1  <0>         0.1046
     13 N1         15.3667   11.7509   55.0432 N.pl3   1  <0>        -0.3143
     14 N2         13.4298    8.5638   55.3404 N.am    1  <0>        -0.2713
     15 N3         12.9656   10.0799   57.0463 N.2     1  <0>        -0.2377
     16 N4         14.7400   12.6521   59.1678 N.4     1  <0>         0.2407
     17 O1         17.6250   11.2801   60.5468 O.3     1  <0>        -0.3944
     18 O2         14.6557   13.0539   62.5539 O.3     1  <0>        -0.3860
     19 O3         14.9454    9.0315   53.7112 O.2     1  <0>        -0.2684
     20 H1         15.6903   13.6770   55.9833 H       1  <0>         0.0787
     21 H2         12.0407    8.2329   56.8749 H       1  <0>         0.1001
     22 H3         14.1663   10.5748   59.2726 H       1  <0>         0.0819
     23 H4         13.2112   11.6412   60.3062 H       1  <0>         0.0819
     24 H5         14.4408   14.3650   60.4219 H       1  <0>         0.0840
     25 H6         16.1082   14.1600   59.8388 H       1  <0>         0.0840
     26 H7         13.7955   14.1771   57.9742 H       1  <0>         0.0868
     27 H8         12.7293   12.8418   58.4169 H       1  <0>         0.0868
     28 H9         16.5216    9.5800   60.9518 H       1  <0>         0.0562
     29 H10        16.2233   10.3441   59.3506 H       1  <0>         0.0562
     30 H11        14.9412   10.7570   61.9040 H       1  <0>         0.0402
     31 H12        16.5816   12.9404   61.7498 H       1  <0>         0.0652
     32 H13        15.9969   11.8137   54.2693 H       1  <0>         0.1518
     33 H14        13.2676    7.6626   54.9386 H       1  <0>         0.1560
     34 H15        15.5386   12.4750   58.5925 H       1  <0>         0.2038
     35 H16        18.3690   10.6957   60.4602 H       1  <0>         0.2094
     36 H17        14.9098   12.5327   63.3063 H       1  <0>         0.2100
@<TRIPOS>BOND
     1     1     7    2
     2     1    13    1
     3     2    14    1
     4     2    15    2
     5     3    11    1
     6     3    16    1
     7     4    12    1
     8     4    16    1
     9     5     7    1
    10     5    16    1
    11     6    11    1
    12     6    17    1
    13     7     9    1
    14     8     9    2
    15     8    10    1
    16     8    13    1
    17     9    15    1
    18    10    14   am
    19    10    19    2
    20    11    12    1
    21    12    18    1
    22     1    20    1
    23     2    21    1
    24     3    22    1
    25     3    23    1
    26     4    24    1
    27     4    25    1
    28     5    26    1
    29     5    27    1
    30     6    28    1
    31     6    29    1
    32    11    30    1
    33    12    31    1
    34    13    32    1
    35    14    33    1
    36    16    34    1
    37    17    35    1
    38    18    36    1
@<TRIPOS>SUBSTRUCTURE
     1 <0>         1 TEMP              0 ****  ****    0 ROOT

