
##########                                Name:      THM_A4970_2B8T
##########                    Molecular_Weight:             242.232
##########                DOCK_Rotatable_Bonds:                   4
##########                       Formal_Charge:          0.00029996
##########                     HBond_Acceptors:                   7
##########                        HBond_Donors:                   3
##########                         Heavy_Atoms:                  17
##########                            HA_RMSDs:               9.042
##########                            HA_RMSDh:               8.642
##########                            HA_RMSDm:               7.965
##########                          Grid_Score:          -34.023994
##########                     Grid_vdw_energy:          -32.262203
##########                      Grid_es_energy:           -1.761789
##########           Internal_energy_repulsive:            6.154936

@<TRIPOS>MOLECULE
THM_A4970_2B8T
 31 32 1 0 0
SMALL
USER_CHARGES


@<TRIPOS>ATOM
      1 C1        -13.7080    4.4587   29.4757 C.3     1  <0>        -0.0336
      2 C2        -11.5405    5.5106   28.6959 C.2     1  <0>         0.0111
      3 C3         -8.6047    5.2803   28.0923 C.3     1  <0>         0.0193
      4 C4         -9.4354    4.9785   24.8584 C.3     1  <0>         0.0729
      5 C5        -12.7304    5.6048   29.4186 C.2     1  <0>         0.0258
      6 C6        -13.0155    6.8732   30.1476 C.2     1  <0>         0.2484
      7 C7        -11.0031    7.7546   29.3700 C.2     1  <0>         0.3146
      8 C8         -7.8283    5.2487   26.7884 C.3     1  <0>         0.0874
      9 C9         -9.4382    6.5384   27.9184 C.3     1  <0>         0.1354
     10 C10        -8.7126    5.9573   25.7722 C.3     1  <0>         0.1098
     11 N1        -12.1342    7.8737   30.0751 N.am    1  <0>        -0.2359
     12 N2        -10.6995    6.5634   28.6687 N.am    1  <0>        -0.2347
     13 O1         -8.6367    4.7533   23.6936 O.3     1  <0>        -0.3924
     14 O2         -6.6154    5.9969   26.9463 O.3     1  <0>        -0.3890
     15 O3        -14.0619    7.0194   30.8135 O.2     1  <0>        -0.2701
     16 O4        -10.2081    8.7224   29.3311 O.2     1  <0>        -0.2518
     17 O5         -9.6813    6.6940   26.5166 O.3     1  <0>        -0.3502
     18 H1        -13.4626    3.8090   30.3287 H       1  <0>         0.0280
     19 H2        -14.7279    4.8526   29.5965 H       1  <0>         0.0280
     20 H3        -13.6469    3.8781   28.5433 H       1  <0>         0.0280
     21 H4        -11.2959    4.6032   28.1637 H       1  <0>         0.0790
     22 H5         -9.2278    4.3839   28.2271 H       1  <0>         0.0333
     23 H6         -7.9429    5.3376   28.9691 H       1  <0>         0.0333
     24 H7         -9.5942    4.0272   25.3873 H       1  <0>         0.0584
     25 H8        -10.4088    5.3977   24.5637 H       1  <0>         0.0584
     26 H9         -7.5773    4.2226   26.4816 H       1  <0>         0.0621
     27 H10        -8.8647    7.3767   28.3408 H       1  <0>         0.0814
     28 H11        -8.0903    6.6005   25.1326 H       1  <0>         0.0646
     29 H12       -12.3232    8.7292   30.5573 H       1  <0>         0.1594
     30 H13        -9.1077    4.1906   23.0902 H       1  <0>         0.2095
     31 H14        -6.0275    5.8036   26.2256 H       1  <0>         0.2099
@<TRIPOS>BOND
     1     1     5    1
     2     2     5    2
     3     2    12    1
     4     3     8    1
     5     3     9    1
     6     4    10    1
     7     4    13    1
     8     5     6    1
     9     6    11   am
    10     6    15    2
    11     7    11   am
    12     7    12   am
    13     7    16    2
    14     8    10    1
    15     8    14    1
    16     9    12    1
    17     9    17    1
    18    10    17    1
    19     1    18    1
    20     1    19    1
    21     1    20    1
    22     2    21    1
    23     3    22    1
    24     3    23    1
    25     4    24    1
    26     4    25    1
    27     8    26    1
    28     9    27    1
    29    10    28    1
    30    11    29    1
    31    13    30    1
    32    14    31    1
@<TRIPOS>SUBSTRUCTURE
     1 <0>         1 TEMP              0 ****  ****    0 ROOT

