
##########                                Name:      THM_A4970_2B8T
##########                    Molecular_Weight:             242.232
##########                DOCK_Rotatable_Bonds:                   4
##########                       Formal_Charge:          0.00029996
##########                     HBond_Acceptors:                   7
##########                        HBond_Donors:                   3
##########                         Heavy_Atoms:                  17
##########                            HA_RMSDs:               0.494
##########                            HA_RMSDh:               0.494
##########                            HA_RMSDm:               0.494
##########                          Grid_Score:          -44.934471
##########                     Grid_vdw_energy:          -43.494461
##########                      Grid_es_energy:           -1.440012
##########           Internal_energy_repulsive:            6.073342

@<TRIPOS>MOLECULE
THM_A4970_2B8T
 31 32 1 0 0
SMALL
USER_CHARGES


@<TRIPOS>ATOM
      1 C1         -6.5835    6.4723   36.8106 C.3     1  <0>        -0.0336
      2 C2         -8.7770    5.4669   36.0423 C.2     1  <0>         0.0111
      3 C3        -11.4741    5.6954   34.5876 C.3     1  <0>         0.0193
      4 C4         -9.8587    4.2692   32.0194 C.3     1  <0>         0.0729
      5 C5         -7.8451    5.6851   37.0577 C.2     1  <0>         0.0258
      6 C6         -8.1288    5.1243   38.4092 C.2     1  <0>         0.2484
      7 C7        -10.1245    4.2307   37.6027 C.2     1  <0>         0.3146
      8 C8        -11.8964    5.1120   33.2515 C.3     1  <0>         0.0874
      9 C9        -10.9029    4.4728   35.2852 C.3     1  <0>         0.1354
     10 C10       -10.9638    3.9336   33.0101 C.3     1  <0>         0.1098
     11 N1         -9.2517    4.4267   38.5980 N.am    1  <0>        -0.2359
     12 N2         -9.8880    4.7520   36.3083 N.am    1  <0>        -0.2347
     13 O1        -10.4271    4.3923   30.7129 O.3     1  <0>        -0.3924
     14 O2        -13.2403    4.6234   33.3566 O.3     1  <0>        -0.3890
     15 O3         -7.3355    5.2862   39.3601 O.2     1  <0>        -0.2701
     16 O4        -11.1634    3.5678   37.8291 O.2     1  <0>        -0.2518
     17 O5        -10.3731    3.6153   34.2691 O.3     1  <0>        -0.3502
     18 H1         -6.7699    7.5375   37.0121 H       1  <0>         0.0280
     19 H2         -5.7874    6.1072   37.4762 H       1  <0>         0.0280
     20 H3         -6.2723    6.3464   35.7630 H       1  <0>         0.0280
     21 H4         -8.6096    5.8670   35.0531 H       1  <0>         0.0790
     22 H5        -10.7285    6.4962   34.4747 H       1  <0>         0.0333
     23 H6        -12.3214    6.1304   35.1379 H       1  <0>         0.0333
     24 H7         -9.3811    5.2178   32.3057 H       1  <0>         0.0584
     25 H8         -9.1051    3.4677   32.0207 H       1  <0>         0.0584
     26 H9        -11.8493    5.8557   32.4424 H       1  <0>         0.0621
     27 H10       -11.7209    4.0005   35.8488 H       1  <0>         0.0814
     28 H11       -11.5368    3.0955   32.5866 H       1  <0>         0.0646
     29 H12        -9.4441    4.0430   39.5012 H       1  <0>         0.1594
     30 H13        -9.7344    4.3760   30.0630 H       1  <0>         0.2095
     31 H14       -13.4509    4.1068   32.5877 H       1  <0>         0.2099
@<TRIPOS>BOND
     1     1     5    1
     2     2     5    2
     3     2    12    1
     4     3     8    1
     5     3     9    1
     6     4    10    1
     7     4    13    1
     8     5     6    1
     9     6    11   am
    10     6    15    2
    11     7    11   am
    12     7    12   am
    13     7    16    2
    14     8    10    1
    15     8    14    1
    16     9    12    1
    17     9    17    1
    18    10    17    1
    19     1    18    1
    20     1    19    1
    21     1    20    1
    22     2    21    1
    23     3    22    1
    24     3    23    1
    25     4    24    1
    26     4    25    1
    27     8    26    1
    28     9    27    1
    29    10    28    1
    30    11    29    1
    31    13    30    1
    32    14    31    1
@<TRIPOS>SUBSTRUCTURE
     1 <0>         1 TEMP              0 ****  ****    0 ROOT

