
##########                                Name:      THM_A4970_2B8T
##########                    Molecular_Weight:             242.232
##########                DOCK_Rotatable_Bonds:                   4
##########                       Formal_Charge:          0.00029996
##########                     HBond_Acceptors:                   7
##########                        HBond_Donors:                   3
##########                         Heavy_Atoms:                  17
##########                            HA_RMSDs:               0.556
##########                            HA_RMSDh:               0.556
##########                            HA_RMSDm:               0.556
##########                          Grid_Score:          -44.465698
##########                     Grid_vdw_energy:          -42.813080
##########                      Grid_es_energy:           -1.652619
##########           Internal_energy_repulsive:            6.490984

@<TRIPOS>MOLECULE
THM_A4970_2B8T
 31 32 1 0 0
SMALL
USER_CHARGES


@<TRIPOS>ATOM
      1 C1         -6.4730    6.5047   36.5580 C.3     1  <0>        -0.0336
      2 C2         -8.7192    5.5702   35.8554 C.2     1  <0>         0.0111
      3 C3        -11.4446    5.8670   34.4465 C.3     1  <0>         0.0193
      4 C4         -9.9160    4.3358   31.8856 C.3     1  <0>         0.0729
      5 C5         -7.7648    5.7849   36.8504 C.2     1  <0>         0.0258
      6 C6         -8.0546    5.2893   38.2258 C.2     1  <0>         0.2484
      7 C7        -10.0987    4.4560   37.4784 C.2     1  <0>         0.3146
      8 C8        -11.9067    5.2663   33.1316 C.3     1  <0>         0.0874
      9 C9        -10.8972    4.6443   35.1628 C.3     1  <0>         0.1354
     10 C10       -11.0132    4.0556   32.9021 C.3     1  <0>         0.1098
     11 N1         -9.2046    4.6504   38.4548 N.am    1  <0>        -0.2359
     12 N2         -9.8571    4.9164   36.1621 N.am    1  <0>        -0.2347
     13 O1        -10.5178    4.6988   30.6401 O.3     1  <0>        -0.3924
     14 O2        -13.2623    4.8201   33.2702 O.3     1  <0>        -0.3890
     15 O3         -7.2420    5.4517   39.1602 O.2     1  <0>        -0.2701
     16 O4        -11.1628    3.8494   37.7427 O.2     1  <0>        -0.2518
     17 O5        -10.4103    3.7487   34.1581 O.3     1  <0>        -0.3502
     18 H1         -6.6092    7.5841   36.7203 H       1  <0>         0.0280
     19 H2         -5.6849    6.1300   37.2277 H       1  <0>         0.0280
     20 H3         -6.1820    6.3253   35.5124 H       1  <0>         0.0280
     21 H4         -8.5477    5.9243   34.8495 H       1  <0>         0.0790
     22 H5        -10.6780    6.6427   34.3028 H       1  <0>         0.0333
     23 H6        -12.2692    6.3392   35.0007 H       1  <0>         0.0333
     24 H7         -9.2819    5.1601   32.2440 H       1  <0>         0.0584
     25 H8         -9.2993    3.4351   31.7497 H       1  <0>         0.0584
     26 H9        -11.8519    5.9897   32.3047 H       1  <0>         0.0621
     27 H10       -11.7188    4.2092   35.7507 H       1  <0>         0.0814
     28 H11       -11.6176    3.2254   32.5077 H       1  <0>         0.0646
     29 H12        -9.4016    4.3104   39.3745 H       1  <0>         0.1594
     30 H13        -9.8444    4.7831   29.9753 H       1  <0>         0.2095
     31 H14       -13.7950    5.2066   32.5852 H       1  <0>         0.2099
@<TRIPOS>BOND
     1     1     5    1
     2     2     5    2
     3     2    12    1
     4     3     8    1
     5     3     9    1
     6     4    10    1
     7     4    13    1
     8     5     6    1
     9     6    11   am
    10     6    15    2
    11     7    11   am
    12     7    12   am
    13     7    16    2
    14     8    10    1
    15     8    14    1
    16     9    12    1
    17     9    17    1
    18    10    17    1
    19     1    18    1
    20     1    19    1
    21     1    20    1
    22     2    21    1
    23     3    22    1
    24     3    23    1
    25     4    24    1
    26     4    25    1
    27     8    26    1
    28     9    27    1
    29    10    28    1
    30    11    29    1
    31    13    30    1
    32    14    31    1
@<TRIPOS>SUBSTRUCTURE
     1 <0>         1 TEMP              0 ****  ****    0 ROOT

