
##########                                Name:      THM_A4970_2B8T
##########                    Molecular_Weight:             242.232
##########                DOCK_Rotatable_Bonds:                   4
##########                       Formal_Charge:          0.00029996
##########                     HBond_Acceptors:                   7
##########                        HBond_Donors:                   3
##########                         Heavy_Atoms:                  17
##########                            HA_RMSDs:               0.583
##########                            HA_RMSDh:               0.583
##########                            HA_RMSDm:               0.583
##########                          Grid_Score:          -42.099388
##########                     Grid_vdw_energy:          -41.118462
##########                      Grid_es_energy:           -0.980928
##########           Internal_energy_repulsive:            6.053639

@<TRIPOS>MOLECULE
THM_A4970_2B8T
 31 32 1 0 0
SMALL
USER_CHARGES


@<TRIPOS>ATOM
      1 C1         -6.5325    6.3910   36.6192 C.3     1  <0>        -0.0336
      2 C2         -8.7488    5.4118   35.8831 C.2     1  <0>         0.0111
      3 C3        -11.4429    5.6690   34.4453 C.3     1  <0>         0.0193
      4 C4         -9.8917    4.1592   31.8854 C.3     1  <0>         0.0729
      5 C5         -7.8005    5.6204   36.8853 C.2     1  <0>         0.0258
      6 C6         -8.0728    5.0661   38.2418 C.2     1  <0>         0.2484
      7 C7        -10.0904    4.1961   37.4646 C.2     1  <0>         0.3146
      8 C8        -11.8939    5.0756   33.1231 C.3     1  <0>         0.0874
      9 C9        -10.8971    4.4431   35.1573 C.3     1  <0>         0.1354
     10 C10       -10.9952    3.8690   32.8921 C.3     1  <0>         0.1098
     11 N1         -9.2017    4.3831   38.4474 N.am    1  <0>        -0.2359
     12 N2         -9.8650    4.7115   36.1659 N.am    1  <0>        -0.2347
     13 O1        -10.4648    4.2407   30.5777 O.3     1  <0>        -0.3924
     14 O2        -13.2491    4.6247   33.2491 O.3     1  <0>        -0.3890
     15 O3         -7.2647    5.2200   39.1815 O.2     1  <0>        -0.2701
     16 O4        -11.1344    3.5468   37.7066 O.2     1  <0>        -0.2518
     17 O5        -10.4004    3.5555   34.1503 O.3     1  <0>        -0.3502
     18 H1         -6.7027    7.4589   36.8208 H       1  <0>         0.0280
     19 H2         -5.7321    6.0173   37.2748 H       1  <0>         0.0280
     20 H3         -6.2372    6.2590   35.5678 H       1  <0>         0.0280
     21 H4         -8.5898    5.8076   34.8909 H       1  <0>         0.0790
     22 H5        -10.6776    6.4478   34.3122 H       1  <0>         0.0333
     23 H6        -12.2728    6.1351   34.9966 H       1  <0>         0.0333
     24 H7         -9.4044    5.1131   32.1356 H       1  <0>         0.0584
     25 H8         -9.1452    3.3516   31.9121 H       1  <0>         0.0584
     26 H9        -11.8353    5.8047   32.3015 H       1  <0>         0.0621
     27 H10       -11.7217    4.0018   35.7364 H       1  <0>         0.0814
     28 H11       -11.5944    3.0398   32.4878 H       1  <0>         0.0646
     29 H12        -9.3867    4.0038   39.3540 H       1  <0>         0.1594
     30 H13        -9.7749    4.3631   29.9362 H       1  <0>         0.2095
     31 H14       -13.5886    4.3972   32.3915 H       1  <0>         0.2099
@<TRIPOS>BOND
     1     1     5    1
     2     2     5    2
     3     2    12    1
     4     3     8    1
     5     3     9    1
     6     4    10    1
     7     4    13    1
     8     5     6    1
     9     6    11   am
    10     6    15    2
    11     7    11   am
    12     7    12   am
    13     7    16    2
    14     8    10    1
    15     8    14    1
    16     9    12    1
    17     9    17    1
    18    10    17    1
    19     1    18    1
    20     1    19    1
    21     1    20    1
    22     2    21    1
    23     3    22    1
    24     3    23    1
    25     4    24    1
    26     4    25    1
    27     8    26    1
    28     9    27    1
    29    10    28    1
    30    11    29    1
    31    13    30    1
    32    14    31    1
@<TRIPOS>SUBSTRUCTURE
     1 <0>         1 TEMP              0 ****  ****    0 ROOT

