
##########                                Name:      THM_A4970_2B8T
##########                    Molecular_Weight:             242.232
##########                DOCK_Rotatable_Bonds:                   4
##########                       Formal_Charge:          0.00029996
##########                     HBond_Acceptors:                   7
##########                        HBond_Donors:                   3
##########                         Heavy_Atoms:                  17
##########                            HA_RMSDs:               0.518
##########                            HA_RMSDh:               0.518
##########                            HA_RMSDm:               0.518
##########                          Grid_Score:          -45.806957
##########                     Grid_vdw_energy:          -44.135174
##########                      Grid_es_energy:           -1.671782
##########           Internal_energy_repulsive:            5.996591

@<TRIPOS>MOLECULE
THM_A4970_2B8T
 31 32 1 0 0
SMALL
USER_CHARGES


@<TRIPOS>ATOM
      1 C1         -6.4328    6.4191   36.7862 C.3     1  <0>        -0.0336
      2 C2         -8.6672    5.5261   35.9971 C.2     1  <0>         0.0111
      3 C3        -11.3997    5.8753   34.5411 C.3     1  <0>         0.0193
      4 C4         -9.7504    4.5044   31.9643 C.3     1  <0>         0.0729
      5 C5         -7.7519    5.7314   37.0302 C.2     1  <0>         0.0258
      6 C6         -8.1118    5.2586   38.3970 C.2     1  <0>         0.2484
      7 C7        -10.1401    4.4618   37.5709 C.2     1  <0>         0.3146
      8 C8        -11.8047    5.3178   33.1887 C.3     1  <0>         0.0874
      9 C9        -10.8337    4.6404   35.2209 C.3     1  <0>         0.1354
     10 C10       -10.8664    4.1465   32.9349 C.3     1  <0>         0.1098
     11 N1         -9.2847    4.6480   38.5829 N.am    1  <0>        -0.2359
     12 N2         -9.8317    4.9013   36.2614 N.am    1  <0>        -0.2347
     13 O1        -10.3051    4.6615   30.6556 O.3     1  <0>        -0.3924
     14 O2        -13.1485    4.8242   33.2680 O.3     1  <0>        -0.3890
     15 O3         -7.3367    5.4140   39.3639 O.2     1  <0>        -0.2701
     16 O4        -11.2280    3.8820   37.7954 O.2     1  <0>        -0.2518
     17 O5        -10.2898    3.8045   34.1942 O.3     1  <0>        -0.3502
     18 H1         -6.5515    7.5031   36.9308 H       1  <0>         0.0280
     19 H2         -5.6829    6.0350   37.4934 H       1  <0>         0.0280
     20 H3         -6.1012    6.2209   35.7562 H       1  <0>         0.0280
     21 H4         -8.4446    5.8645   34.9959 H       1  <0>         0.0790
     22 H5        -10.6548    6.6799   34.4531 H       1  <0>         0.0333
     23 H6        -12.2545    6.2973   35.0899 H       1  <0>         0.0333
     24 H7         -9.2739    5.4445   32.2792 H       1  <0>         0.0584
     25 H8         -8.9986    3.7015   31.9532 H       1  <0>         0.0584
     26 H9        -11.7499    6.0776   32.3952 H       1  <0>         0.0621
     27 H10       -11.6571    4.1550   35.7652 H       1  <0>         0.0814
     28 H11       -11.4322    3.3158   32.4880 H       1  <0>         0.0646
     29 H12        -9.5286    4.3233   39.4968 H       1  <0>         0.1594
     30 H13        -9.6458    4.4518   30.0045 H       1  <0>         0.2095
     31 H14       -13.4064    4.4698   32.4252 H       1  <0>         0.2099
@<TRIPOS>BOND
     1     1     5    1
     2     2     5    2
     3     2    12    1
     4     3     8    1
     5     3     9    1
     6     4    10    1
     7     4    13    1
     8     5     6    1
     9     6    11   am
    10     6    15    2
    11     7    11   am
    12     7    12   am
    13     7    16    2
    14     8    10    1
    15     8    14    1
    16     9    12    1
    17     9    17    1
    18    10    17    1
    19     1    18    1
    20     1    19    1
    21     1    20    1
    22     2    21    1
    23     3    22    1
    24     3    23    1
    25     4    24    1
    26     4    25    1
    27     8    26    1
    28     9    27    1
    29    10    28    1
    30    11    29    1
    31    13    30    1
    32    14    31    1
@<TRIPOS>SUBSTRUCTURE
     1 <0>         1 TEMP              0 ****  ****    0 ROOT

