
##########                                Name:      THM_A4970_2B8T
##########                    Molecular_Weight:             242.232
##########                DOCK_Rotatable_Bonds:                   4
##########                       Formal_Charge:          0.00029996
##########                     HBond_Acceptors:                   7
##########                        HBond_Donors:                   3
##########                         Heavy_Atoms:                  17
##########                            HA_RMSDs:               0.472
##########                            HA_RMSDh:               0.472
##########                            HA_RMSDm:               0.472
##########                          Grid_Score:          -44.049183
##########                     Grid_vdw_energy:          -42.787437
##########                      Grid_es_energy:           -1.261744
##########           Internal_energy_repulsive:            5.973911

@<TRIPOS>MOLECULE
THM_A4970_2B8T
 31 32 1 0 0
SMALL
USER_CHARGES


@<TRIPOS>ATOM
      1 C1         -6.4757    6.4516   36.6308 C.3     1  <0>        -0.0336
      2 C2         -8.7237    5.5122   35.9406 C.2     1  <0>         0.0111
      3 C3        -11.4922    5.8120   34.5907 C.3     1  <0>         0.0193
      4 C4         -9.9665    4.4007   31.9602 C.3     1  <0>         0.0729
      5 C5         -7.7605    5.7215   36.9283 C.2     1  <0>         0.0258
      6 C6         -8.0338    5.2095   38.3011 C.2     1  <0>         0.2484
      7 C7        -10.0807    4.3729   37.5651 C.2     1  <0>         0.3146
      8 C8        -11.9599    5.2410   33.2645 C.3     1  <0>         0.0874
      9 C9        -10.9034    4.5817   35.2597 C.3     1  <0>         0.1354
     10 C10       -11.0402    4.0611   32.9836 C.3     1  <0>         0.1098
     11 N1         -9.1779    4.5617   38.5346 N.am    1  <0>        -0.2359
     12 N2         -9.8548    4.8488   36.2515 N.am    1  <0>        -0.2347
     13 O1        -10.5656    4.4716   30.6637 O.3     1  <0>        -0.3924
     14 O2        -13.3015    4.7564   33.4092 O.3     1  <0>        -0.3890
     15 O3         -7.2128    5.3662   39.2291 O.2     1  <0>        -0.2701
     16 O4        -11.1388    3.7575   37.8334 O.2     1  <0>        -0.2518
     17 O5        -10.4102    3.7305   34.2201 O.3     1  <0>        -0.3502
     18 H1         -6.6162    7.5284   36.8063 H       1  <0>         0.0280
     19 H2         -5.6788    6.0741   37.2886 H       1  <0>         0.0280
     20 H3         -6.1942    6.2851   35.5806 H       1  <0>         0.0280
     21 H4         -8.5642    5.8782   34.9370 H       1  <0>         0.0790
     22 H5        -10.7476    6.6109   34.4601 H       1  <0>         0.0333
     23 H6        -12.3195    6.2455   35.1717 H       1  <0>         0.0333
     24 H7         -9.5107    5.3701   32.2104 H       1  <0>         0.0584
     25 H8         -9.1901    3.6214   31.9665 H       1  <0>         0.0584
     26 H9        -11.9361    5.9910   32.4602 H       1  <0>         0.0621
     27 H10       -11.7046    4.1078   35.8458 H       1  <0>         0.0814
     28 H11       -11.6298    3.2286   32.5722 H       1  <0>         0.0646
     29 H12        -9.3638    4.2107   39.4524 H       1  <0>         0.1594
     30 H13        -9.8999    4.6756   30.0174 H       1  <0>         0.2095
     31 H14       -13.6532    4.5367   32.5545 H       1  <0>         0.2099
@<TRIPOS>BOND
     1     1     5    1
     2     2     5    2
     3     2    12    1
     4     3     8    1
     5     3     9    1
     6     4    10    1
     7     4    13    1
     8     5     6    1
     9     6    11   am
    10     6    15    2
    11     7    11   am
    12     7    12   am
    13     7    16    2
    14     8    10    1
    15     8    14    1
    16     9    12    1
    17     9    17    1
    18    10    17    1
    19     1    18    1
    20     1    19    1
    21     1    20    1
    22     2    21    1
    23     3    22    1
    24     3    23    1
    25     4    24    1
    26     4    25    1
    27     8    26    1
    28     9    27    1
    29    10    28    1
    30    11    29    1
    31    13    30    1
    32    14    31    1
@<TRIPOS>SUBSTRUCTURE
     1 <0>         1 TEMP              0 ****  ****    0 ROOT

