
##########                                Name:      THM_A4970_2B8T
##########                    Molecular_Weight:             242.232
##########                DOCK_Rotatable_Bonds:                   4
##########                       Formal_Charge:          0.00029996
##########                     HBond_Acceptors:                   7
##########                        HBond_Donors:                   3
##########                         Heavy_Atoms:                  17
##########                            HA_RMSDs:               0.412
##########                            HA_RMSDh:               0.412
##########                            HA_RMSDm:               0.412
##########                          Grid_Score:          -44.405525
##########                     Grid_vdw_energy:          -42.559650
##########                      Grid_es_energy:           -1.845874
##########           Internal_energy_repulsive:            6.063498

@<TRIPOS>MOLECULE
THM_A4970_2B8T
 31 32 1 0 0
SMALL
USER_CHARGES


@<TRIPOS>ATOM
      1 C1         -6.3156    6.5953   36.5484 C.3     1  <0>        -0.0336
      2 C2         -8.5902    5.6403   35.9764 C.2     1  <0>         0.0111
      3 C3        -11.4774    5.9088   34.8039 C.3     1  <0>         0.0193
      4 C4        -10.0306    4.6304   32.0632 C.3     1  <0>         0.0729
      5 C5         -7.5891    5.8786   36.9188 C.2     1  <0>         0.0258
      6 C6         -7.8097    5.4118   38.3170 C.2     1  <0>         0.2484
      7 C7         -9.8848    4.5576   37.6883 C.2     1  <0>         0.3146
      8 C8        -11.9884    5.3447   33.4907 C.3     1  <0>         0.0874
      9 C9        -10.7960    4.6944   35.4109 C.3     1  <0>         0.1354
     10 C10       -11.0304    4.2171   33.1332 C.3     1  <0>         0.1098
     11 N1         -8.9448    4.7751   38.6155 N.am    1  <0>        -0.2359
     12 N2         -9.7094    4.9904   36.3522 N.am    1  <0>        -0.2347
     13 O1        -10.7289    4.8519   30.8350 O.3     1  <0>        -0.3924
     14 O2        -13.2959    4.7928   33.6942 O.3     1  <0>        -0.3890
     15 O3         -6.9530    5.5962   39.2069 O.2     1  <0>        -0.2701
     16 O4        -10.9326    3.9541   38.0170 O.2     1  <0>        -0.2518
     17 O5        -10.3199    3.8908   34.3265 O.3     1  <0>        -0.3502
     18 H1         -6.4476    7.6776   36.6943 H       1  <0>         0.0280
     19 H2         -5.4945    6.2369   37.1866 H       1  <0>         0.0280
     20 H3         -6.0754    6.3942   35.4939 H       1  <0>         0.0280
     21 H4         -8.4692    5.9733   34.9561 H       1  <0>         0.0790
     22 H5        -10.7794    6.7456   34.6536 H       1  <0>         0.0333
     23 H6        -12.2918    6.2892   35.4381 H       1  <0>         0.0333
     24 H7         -9.5211    5.5555   32.3708 H       1  <0>         0.0584
     25 H8         -9.2852    3.8331   31.9260 H       1  <0>         0.0584
     26 H9        -12.0433    6.1123   32.7047 H       1  <0>         0.0621
     27 H10       -11.5413    4.1696   36.0268 H       1  <0>         0.0814
     28 H11       -11.6014    3.3662   32.7335 H       1  <0>         0.0646
     29 H12        -9.0954    4.4544   39.5506 H       1  <0>         0.1594
     30 H13       -10.1081    5.0859   30.1550 H       1  <0>         0.2095
     31 H14       -13.7333    4.6964   32.8564 H       1  <0>         0.2099
@<TRIPOS>BOND
     1     1     5    1
     2     2     5    2
     3     2    12    1
     4     3     8    1
     5     3     9    1
     6     4    10    1
     7     4    13    1
     8     5     6    1
     9     6    11   am
    10     6    15    2
    11     7    11   am
    12     7    12   am
    13     7    16    2
    14     8    10    1
    15     8    14    1
    16     9    12    1
    17     9    17    1
    18    10    17    1
    19     1    18    1
    20     1    19    1
    21     1    20    1
    22     2    21    1
    23     3    22    1
    24     3    23    1
    25     4    24    1
    26     4    25    1
    27     8    26    1
    28     9    27    1
    29    10    28    1
    30    11    29    1
    31    13    30    1
    32    14    31    1
@<TRIPOS>SUBSTRUCTURE
     1 <0>         1 TEMP              0 ****  ****    0 ROOT

