
##########                                Name:      THM_A4970_2B8T
##########                    Molecular_Weight:             242.232
##########                DOCK_Rotatable_Bonds:                   4
##########                       Formal_Charge:          0.00029996
##########                     HBond_Acceptors:                   7
##########                        HBond_Donors:                   3
##########                         Heavy_Atoms:                  17
##########                            HA_RMSDs:               0.643
##########                            HA_RMSDh:               0.643
##########                            HA_RMSDm:               0.643
##########                          Grid_Score:          -41.617134
##########                     Grid_vdw_energy:          -39.725853
##########                      Grid_es_energy:           -1.891279
##########           Internal_energy_repulsive:            6.792927

@<TRIPOS>MOLECULE
THM_A4970_2B8T
 31 32 1 0 0
SMALL
USER_CHARGES


@<TRIPOS>ATOM
      1 C1         -6.5953    6.4429   36.5703 C.3     1  <0>        -0.0336
      2 C2         -8.8153    5.4500   35.8647 C.2     1  <0>         0.0111
      3 C3        -11.6306    5.6198   34.4386 C.3     1  <0>         0.0193
      4 C4         -9.9031    4.2493   31.9134 C.3     1  <0>         0.0729
      5 C5         -7.9140    5.7803   36.8774 C.2     1  <0>         0.0258
      6 C6         -8.2887    5.4682   38.2858 C.2     1  <0>         0.2484
      7 C7        -10.3027    4.5678   37.5345 C.2     1  <0>         0.3146
      8 C8        -12.0031    4.9667   33.1201 C.3     1  <0>         0.0874
      9 C9        -10.9677    4.4662   35.1717 C.3     1  <0>         0.1354
     10 C10       -10.9811    3.8578   32.9133 C.3     1  <0>         0.1098
     11 N1         -9.4609    4.8762   38.5279 N.am    1  <0>        -0.2359
     12 N2         -9.9800    4.8531   36.1863 N.am    1  <0>        -0.2347
     13 O1        -10.5279    4.6944   30.7065 O.3     1  <0>        -0.3924
     14 O2        -13.3052    4.3783   33.2392 O.3     1  <0>        -0.3890
     15 O3         -7.5265    5.7403   39.2371 O.2     1  <0>        -0.2701
     16 O4        -11.3905    4.0114   37.8123 O.2     1  <0>        -0.2518
     17 O5        -10.3704    3.6233   34.1811 O.3     1  <0>        -0.3502
     18 H1         -6.7210    7.5356   36.5859 H       1  <0>         0.0280
     19 H2         -5.8524    6.1488   37.3265 H       1  <0>         0.0280
     20 H3         -6.2499    6.1279   35.5746 H       1  <0>         0.0280
     21 H4         -8.5819    5.6705   34.8335 H       1  <0>         0.0790
     22 H5        -10.9493    6.4725   34.3025 H       1  <0>         0.0333
     23 H6        -12.5105    6.0034   34.9759 H       1  <0>         0.0333
     24 H7         -9.2876    5.0595   32.3315 H       1  <0>         0.0584
     25 H8         -9.2636    3.3801   31.6998 H       1  <0>         0.0584
     26 H9        -12.0120    5.6879   32.2896 H       1  <0>         0.0621
     27 H10       -11.7478    3.9482   35.7488 H       1  <0>         0.0814
     28 H11       -11.4861    2.9657   32.5144 H       1  <0>         0.0646
     29 H12        -9.7146    4.6590   39.4705 H       1  <0>         0.1594
     30 H13        -9.9663    4.4953   29.9666 H       1  <0>         0.2095
     31 H14       -13.5699    4.0215   32.3996 H       1  <0>         0.2099
@<TRIPOS>BOND
     1     1     5    1
     2     2     5    2
     3     2    12    1
     4     3     8    1
     5     3     9    1
     6     4    10    1
     7     4    13    1
     8     5     6    1
     9     6    11   am
    10     6    15    2
    11     7    11   am
    12     7    12   am
    13     7    16    2
    14     8    10    1
    15     8    14    1
    16     9    12    1
    17     9    17    1
    18    10    17    1
    19     1    18    1
    20     1    19    1
    21     1    20    1
    22     2    21    1
    23     3    22    1
    24     3    23    1
    25     4    24    1
    26     4    25    1
    27     8    26    1
    28     9    27    1
    29    10    28    1
    30    11    29    1
    31    13    30    1
    32    14    31    1
@<TRIPOS>SUBSTRUCTURE
     1 <0>         1 TEMP              0 ****  ****    0 ROOT

