
##########                                Name:          L8I_1_3M2W
##########                    Molecular_Weight:             387.436
##########                DOCK_Rotatable_Bonds:                   1
##########                       Formal_Charge:              0.9998
##########                     HBond_Acceptors:                   6
##########                        HBond_Donors:                   2
##########                         Heavy_Atoms:                  29
##########                            HA_RMSDs:               0.588
##########                            HA_RMSDh:               0.588
##########                            HA_RMSDm:               0.557
##########                          Grid_Score:         -114.157547
##########                     Grid_vdw_energy:          -57.519615
##########                      Grid_es_energy:          -56.637928
##########           Internal_energy_repulsive:            8.991568

@<TRIPOS>MOLECULE
L8I_1_3M2W
 49 54 1 0 0
SMALL
USER_CHARGES


@<TRIPOS>ATOM
      1 C1         37.0427    4.8369   23.2181 C.3     1  <0>        -0.0430
      2 C2         34.6493    3.7582   11.5200 C.ar    1  <0>        -0.0610
      3 C3         33.8645    2.9030   12.2999 C.ar    1  <0>        -0.0590
      4 C4         35.7598    4.3821   12.0779 C.ar    1  <0>        -0.0498
      5 C5         34.1667    2.6922   13.6347 C.ar    1  <0>        -0.0258
      6 C6         37.3188    5.2520   15.2937 C.ar    1  <0>        -0.0264
      7 C7         39.2891    5.8690   13.4390 C.ar    1  <0>         0.0321
      8 C8         40.7184    7.0264   15.1929 C.3     1  <0>        -0.0216
      9 C9         40.4847    7.9546   16.4148 C.3     1  <0>        -0.0211
     10 C10        38.4605    5.0845   21.1585 C.3     1  <0>        -0.0110
     11 C11        36.5949    6.0997   21.0342 C.3     1  <0>        -0.0110
     12 C12        38.5537    7.6454   21.5540 C.2     1  <0>         0.0310
     13 C13        36.0633    4.1611   13.4106 C.ar    1  <0>         0.0355
     14 C14        35.2732    3.3201   14.1946 C.ar    1  <0>         0.1325
     15 C15        38.4618    5.9359   15.6900 C.ar    1  <0>         0.0030
     16 C16        37.2314    4.8713   13.9523 C.ar    1  <0>         0.0743
     17 C17        39.4547    6.2648   14.7661 C.ar    1  <0>        -0.0200
     18 C18        39.5800    7.2861   17.4074 C.2     1  <0>        -0.0115
     19 C19        39.4733    7.4669   18.8603 C.2     1  <0>         0.0644
     20 C20        38.6544    6.3749   17.0944 C.2     1  <0>         0.0428
     21 C21        38.4758    6.6326   19.2219 C.2     1  <0>         0.0428
     22 C22        40.1661    8.3511   19.8106 C.2     1  <0>         0.2789
     23 C23        38.0418    6.4882   20.6614 C.3     1  <0>         0.1236
     24 N1         38.0203    6.0066   18.1609 N.pl3   1  <0>        -0.3155
     25 N2         38.1959    5.1936   13.0712 N.ar    1  <0>        -0.2546
     26 N3         39.6980    8.4164   21.0710 N.2     1  <0>        -0.2200
     27 N4         37.1084    4.8786   21.7269 N.4     1  <0>         0.2352
     28 O1         41.1033    9.0614   19.4698 O.2     1  <0>        -0.2652
     29 F1         35.5487    3.0882   15.4825 F       1  <0>        -0.2048
     30 H1         36.0010    4.6810   23.5355 H       1  <0>         0.0778
     31 H2         37.6666    4.0106   23.5895 H       1  <0>         0.0778
     32 H3         37.4121    5.7885   23.6280 H       1  <0>         0.0778
     33 H4         34.3933    3.9339   10.4856 H       1  <0>         0.0618
     34 H5         33.0157    2.4029   11.8576 H       1  <0>         0.0618
     35 H6         36.3791    5.0323   11.4778 H       1  <0>         0.0625
     36 H7         33.5469    2.0443   14.2367 H       1  <0>         0.0646
     37 H8         36.5296    5.0239   15.9948 H       1  <0>         0.0645
     38 H9         40.0459    6.1087   12.7068 H       1  <0>         0.0833
     39 H10        41.0504    7.6462   14.3469 H       1  <0>         0.0317
     40 H11        41.4912    6.2908   15.4608 H       1  <0>         0.0317
     41 H12        41.4504    8.1726   16.8941 H       1  <0>         0.0317
     42 H13        40.0196    8.8915   16.0743 H       1  <0>         0.0317
     43 H14        38.7842    4.3677   20.3896 H       1  <0>         0.0829
     44 H15        39.3018    5.0449   21.8661 H       1  <0>         0.0829
     45 H16        36.0341    6.8178   21.6504 H       1  <0>         0.0829
     46 H17        35.8968    5.9371   20.1998 H       1  <0>         0.0829
     47 H18        38.0827    7.8744   22.4985 H       1  <0>         0.0797
     48 H19        37.2807    5.3338   18.1752 H       1  <0>         0.1519
     49 H20        36.6206    4.0171   21.5862 H       1  <0>         0.2031
@<TRIPOS>BOND
     1     1    27    1
     2     2     3   ar
     3     2     4   ar
     4     3     5   ar
     5     4    13   ar
     6     5    14   ar
     7     6    15   ar
     8     6    16   ar
     9     7    17   ar
    10     7    25   ar
    11     8     9    1
    12     8    17    1
    13     9    18    1
    14    10    23    1
    15    10    27    1
    16    11    23    1
    17    11    27    1
    18    12    23    1
    19    12    26    2
    20    13    14   ar
    21    13    16    1
    22    14    29    1
    23    15    17   ar
    24    15    20    1
    25    16    25   ar
    26    18    19    1
    27    18    20    2
    28    19    21    2
    29    19    22    1
    30    20    24    1
    31    21    23    1
    32    21    24    1
    33    22    26    1
    34    22    28    2
    35     1    30    1
    36     1    31    1
    37     1    32    1
    38     2    33    1
    39     3    34    1
    40     4    35    1
    41     5    36    1
    42     6    37    1
    43     7    38    1
    44     8    39    1
    45     8    40    1
    46     9    41    1
    47     9    42    1
    48    10    43    1
    49    10    44    1
    50    11    45    1
    51    11    46    1
    52    12    47    1
    53    24    48    1
    54    27    49    1
@<TRIPOS>SUBSTRUCTURE
     1 <0>         1 TEMP              0 ****  ****    0 ROOT

