
##########                                Name:        608_501_2P2I
##########                    Molecular_Weight:             396.448
##########                DOCK_Rotatable_Bonds:                   8
##########                       Formal_Charge:         0.000100359
##########                     HBond_Acceptors:                   6
##########                        HBond_Donors:                   2
##########                         Heavy_Atoms:                  30
##########                            HA_RMSDs:               0.453
##########                            HA_RMSDh:               0.453
##########                            HA_RMSDm:               0.453
##########                          Grid_Score:          -65.871445
##########                     Grid_vdw_energy:          -64.434433
##########                      Grid_es_energy:           -1.437016
##########           Internal_energy_repulsive:           11.359961

@<TRIPOS>MOLECULE
608_501_2P2I
 50 53 1 0 0
SMALL
USER_CHARGES


@<TRIPOS>ATOM
      1 C1         38.4081   44.4191   11.0956 C.ar    1  <0>        -0.0616
      2 C2         38.9723   43.6964   12.2286 C.ar    1  <0>        -0.0593
      3 C3         38.1632   43.8242    9.7870 C.ar    1  <0>        -0.0593
      4 C4         34.3580   32.2926   12.3811 C.ar    1  <0>        -0.0427
      5 C5         39.3039   42.3074   12.0184 C.ar    1  <0>        -0.0312
      6 C6         38.4971   42.4292    9.5848 C.ar    1  <0>        -0.0312
      7 C7         35.2080   33.4201   12.1907 C.ar    1  <0>        -0.0449
      8 C8         38.3446   36.8383   10.6476 C.ar    1  <0>        -0.0380
      9 C9         37.1741   38.0766   12.5858 C.ar    1  <0>        -0.0380
     10 C10        38.9873   38.0513   10.2414 C.ar    1  <0>        -0.0294
     11 C11        37.8190   39.2985   12.1828 C.ar    1  <0>        -0.0294
     12 C12        39.7433   28.8098   13.3945 C.ar    1  <0>        -0.0389
     13 C13        39.7021   30.8341   11.7705 C.ar    1  <0>        -0.0389
     14 C14        34.8898   31.1693   13.0980 C.ar    1  <0>         0.0297
     15 C15        40.2709   28.0119   12.3485 C.ar    1  <0>         0.0279
     16 C16        40.2329   29.9713   10.7618 C.ar    1  <0>         0.0279
     17 C17        38.9476   31.0404   14.2397 C.3     1  <0>         0.0358
     18 C18        39.4793   30.2069   13.0663 C.ar    1  <0>        -0.0275
     19 C19        37.4597   36.8846   11.8027 C.ar    1  <0>         0.0338
     20 C20        39.0623   41.7067   10.7057 C.ar    1  <0>         0.0831
     21 C21        38.7127   39.2595   11.0157 C.ar    1  <0>         0.0832
     22 C22        36.5643   33.4454   12.6944 C.ar    1  <0>         0.0767
     23 C23        37.0096   32.2919   13.3998 C.ar    1  <0>         0.1311
     24 C24        37.4574   34.5943   12.4317 C.2     1  <0>         0.2516
     25 N1         40.4768   28.6350   11.1294 N.ar    1  <0>        -0.2632
     26 N2         36.1721   31.1870   13.5839 N.ar    1  <0>        -0.2397
     27 N3         38.2815   32.2870   13.8921 N.pl3   1  <0>        -0.3244
     28 N4         36.8330   35.7638   12.2252 N.am    1  <0>        -0.2814
     29 O1         38.6812   34.5293   12.3800 O.2     1  <0>        -0.2697
     30 O2         39.4125   40.3885   10.5027 O.3     1  <0>        -0.3093
     31 H1         38.1558   45.4601   11.2339 H       1  <0>         0.0618
     32 H2         39.1347   44.1780   13.1816 H       1  <0>         0.0618
     33 H3         37.7413   44.4117    8.9849 H       1  <0>         0.0618
     34 H4         33.3479   32.2838   11.9988 H       1  <0>         0.0633
     35 H5         39.7252   41.7186   12.8198 H       1  <0>         0.0643
     36 H6         38.3309   41.9458    8.6334 H       1  <0>         0.0643
     37 H7         34.8299   34.2790   11.6562 H       1  <0>         0.0627
     38 H8         38.5114   35.9152   10.1123 H       1  <0>         0.0637
     39 H9         36.5062   38.0461   13.4339 H       1  <0>         0.0637
     40 H10        39.6528   38.0727    9.3911 H       1  <0>         0.0644
     41 H11        37.6512   40.2187   12.7227 H       1  <0>         0.0644
     42 H12        39.5481   28.4071   14.3774 H       1  <0>         0.0636
     43 H13        39.4822   31.8752   11.5854 H       1  <0>         0.0636
     44 H14        34.2717   30.2980   13.2573 H       1  <0>         0.0830
     45 H15        40.5014   26.9671   12.4956 H       1  <0>         0.0829
     46 H16        40.4374   30.3287    9.7634 H       1  <0>         0.0829
     47 H17        38.2172   30.4186   14.7782 H       1  <0>         0.0511
     48 H18        39.8079   31.2957   14.8758 H       1  <0>         0.0511
     49 H19        38.2484   32.8221   14.7362 H       1  <0>         0.1478
     50 H20        35.8483   35.8089   12.3934 H       1  <0>         0.1551
@<TRIPOS>BOND
     1     1     2   ar
     2     1     3   ar
     3     2     5   ar
     4     3     6   ar
     5     4     7   ar
     6     4    14   ar
     7     5    20   ar
     8     6    20   ar
     9     7    22   ar
    10     8    10   ar
    11     8    19   ar
    12     9    11   ar
    13     9    19   ar
    14    10    21   ar
    15    11    21   ar
    16    12    15   ar
    17    12    18   ar
    18    13    16   ar
    19    13    18   ar
    20    14    26   ar
    21    15    25   ar
    22    16    25   ar
    23    17    18    1
    24    17    27    1
    25    19    28    1
    26    20    30    1
    27    21    30    1
    28    22    23   ar
    29    22    24    1
    30    23    26   ar
    31    23    27    1
    32    24    28   am
    33    24    29    2
    34     1    31    1
    35     2    32    1
    36     3    33    1
    37     4    34    1
    38     5    35    1
    39     6    36    1
    40     7    37    1
    41     8    38    1
    42     9    39    1
    43    10    40    1
    44    11    41    1
    45    12    42    1
    46    13    43    1
    47    14    44    1
    48    15    45    1
    49    16    46    1
    50    17    47    1
    51    17    48    1
    52    27    49    1
    53    28    50    1
@<TRIPOS>SUBSTRUCTURE
     1 <0>         1 TEMP              0 ****  ****    0 ROOT

