
##########                                Name:        608_501_2P2I
##########                    Molecular_Weight:             396.448
##########                DOCK_Rotatable_Bonds:                   8
##########                       Formal_Charge:         0.000100359
##########                     HBond_Acceptors:                   6
##########                        HBond_Donors:                   2
##########                         Heavy_Atoms:                  30
##########                            HA_RMSDs:               0.240
##########                            HA_RMSDh:               0.240
##########                            HA_RMSDm:               0.240
##########                          Grid_Score:          -52.422188
##########                     Grid_vdw_energy:          -50.913811
##########                      Grid_es_energy:           -1.508379
##########           Internal_energy_repulsive:           11.905450

@<TRIPOS>MOLECULE
608_501_2P2I
 50 53 1 0 0
SMALL
USER_CHARGES


@<TRIPOS>ATOM
      1 C1         38.6521   44.5324   10.7866 C.ar    1  <0>        -0.0616
      2 C2         39.5087   43.9464   11.8099 C.ar    1  <0>        -0.0593
      3 C3         38.1186   43.7951    9.6472 C.ar    1  <0>        -0.0593
      4 C4         34.5402   32.5038   12.5545 C.ar    1  <0>        -0.0427
      5 C5         39.8385   42.5486   11.6645 C.ar    1  <0>        -0.0312
      6 C6         38.4528   42.3923    9.5096 C.ar    1  <0>        -0.0312
      7 C7         35.3861   33.6345   12.3647 C.ar    1  <0>        -0.0449
      8 C8         38.5778   36.9376   10.6276 C.ar    1  <0>        -0.0380
      9 C9         37.3459   38.2549   12.4735 C.ar    1  <0>        -0.0380
     10 C10        39.2347   38.1329   10.1928 C.ar    1  <0>        -0.0294
     11 C11        38.0050   39.4592   12.0416 C.ar    1  <0>        -0.0294
     12 C12        40.0614   28.9859   14.2242 C.ar    1  <0>        -0.0389
     13 C13        39.5458   30.4625   12.1528 C.ar    1  <0>        -0.0389
     14 C14        35.0880   31.3678   13.2386 C.ar    1  <0>         0.0297
     15 C15        40.5664   27.9859   13.3558 C.ar    1  <0>         0.0279
     16 C16        40.0675   29.4113   11.3365 C.ar    1  <0>         0.0279
     17 C17        39.0694   31.2710   14.5670 C.3     1  <0>         0.0358
     18 C18        39.5683   30.2020   13.5858 C.ar    1  <0>        -0.0275
     19 C19        37.6556   37.0315   11.7503 C.ar    1  <0>         0.0338
     20 C20        39.3074   41.8052   10.5209 C.ar    1  <0>         0.0831
     21 C21        38.9364   39.3720   10.9069 C.ar    1  <0>         0.0832
     22 C22        36.7537   33.6507   12.8370 C.ar    1  <0>         0.0767
     23 C23        37.2148   32.4846   13.5110 C.ar    1  <0>         0.1311
     24 C24        37.6411   34.8040   12.5743 C.2     1  <0>         0.2516
     25 N1         40.5370   28.2622   11.9995 N.ar    1  <0>        -0.2632
     26 N2         36.3813   31.3766   13.6946 N.ar    1  <0>        -0.2397
     27 N3         38.4978   32.4707   13.9733 N.pl3   1  <0>        -0.3244
     28 N4         37.0142   35.9291   12.1981 N.am    1  <0>        -0.2814
     29 O1         38.8641   34.7781   12.6637 O.2     1  <0>        -0.2697
     30 O2         39.6538   40.4790   10.3708 O.3     1  <0>        -0.3093
     31 H1         38.3966   45.5777   10.8779 H       1  <0>         0.0618
     32 H2         39.8797   44.5310   12.6387 H       1  <0>         0.0618
     33 H3         37.4872   44.2850    8.9208 H       1  <0>         0.0618
     34 H4         33.5215   32.5019   12.1957 H       1  <0>         0.0633
     35 H5         40.4692   42.0574   12.3906 H       1  <0>         0.0643
     36 H6         38.0786   41.8060    8.6834 H       1  <0>         0.0643
     37 H7         34.9960   34.5029   11.8546 H       1  <0>         0.0627
     38 H8         38.7610   35.9931   10.1368 H       1  <0>         0.0637
     39 H9         36.6506   38.2594   13.2999 H       1  <0>         0.0637
     40 H10        39.9277   38.1191    9.3646 H       1  <0>         0.0644
     41 H11        37.8206   40.4009   12.5371 H       1  <0>         0.0644
     42 H12        40.0425   28.8553   15.2961 H       1  <0>         0.0636
     43 H13        39.1628   31.3829   11.7373 H       1  <0>         0.0636
     44 H14        34.4734   30.4938   13.3964 H       1  <0>         0.0830
     45 H15        40.9559   27.0525   13.7344 H       1  <0>         0.0829
     46 H16        40.1000   29.4952   10.2602 H       1  <0>         0.0829
     47 H17        38.2867   30.8075   15.1855 H       1  <0>         0.0511
     48 H18        39.9311   31.5853   15.1742 H       1  <0>         0.0511
     49 H19        38.5379   33.1719   14.6852 H       1  <0>         0.1478
     50 H20        36.0160   35.9534   12.2521 H       1  <0>         0.1551
@<TRIPOS>BOND
     1     1     2   ar
     2     1     3   ar
     3     2     5   ar
     4     3     6   ar
     5     4     7   ar
     6     4    14   ar
     7     5    20   ar
     8     6    20   ar
     9     7    22   ar
    10     8    10   ar
    11     8    19   ar
    12     9    11   ar
    13     9    19   ar
    14    10    21   ar
    15    11    21   ar
    16    12    15   ar
    17    12    18   ar
    18    13    16   ar
    19    13    18   ar
    20    14    26   ar
    21    15    25   ar
    22    16    25   ar
    23    17    18    1
    24    17    27    1
    25    19    28    1
    26    20    30    1
    27    21    30    1
    28    22    23   ar
    29    22    24    1
    30    23    26   ar
    31    23    27    1
    32    24    28   am
    33    24    29    2
    34     1    31    1
    35     2    32    1
    36     3    33    1
    37     4    34    1
    38     5    35    1
    39     6    36    1
    40     7    37    1
    41     8    38    1
    42     9    39    1
    43    10    40    1
    44    11    41    1
    45    12    42    1
    46    13    43    1
    47    14    44    1
    48    15    45    1
    49    16    46    1
    50    17    47    1
    51    17    48    1
    52    27    49    1
    53    28    50    1
@<TRIPOS>SUBSTRUCTURE
     1 <0>         1 TEMP              0 ****  ****    0 ROOT

