
##########                                Name:        608_501_2P2I
##########                    Molecular_Weight:             396.448
##########                DOCK_Rotatable_Bonds:                   8
##########                       Formal_Charge:         0.000100359
##########                     HBond_Acceptors:                   6
##########                        HBond_Donors:                   2
##########                         Heavy_Atoms:                  30
##########                            HA_RMSDs:               0.453
##########                            HA_RMSDh:               0.453
##########                            HA_RMSDm:               0.453
##########                          Grid_Score:          -54.707329
##########                     Grid_vdw_energy:          -52.259777
##########                      Grid_es_energy:           -2.447550
##########           Internal_energy_repulsive:           11.596100

@<TRIPOS>MOLECULE
608_501_2P2I
 50 53 1 0 0
SMALL
USER_CHARGES


@<TRIPOS>ATOM
      1 C1         38.2389   44.8057   11.4659 C.ar    1  <0>        -0.0616
      2 C2         39.0735   44.0718   12.4088 C.ar    1  <0>        -0.0593
      3 C3         37.7354   44.2494   10.2155 C.ar    1  <0>        -0.0593
      4 C4         34.6519   32.4653   12.1176 C.ar    1  <0>        -0.0427
      5 C5         39.4124   42.7124   12.0612 C.ar    1  <0>        -0.0312
      6 C6         38.0786   42.8839    9.8749 C.ar    1  <0>        -0.0312
      7 C7         35.4349   33.6480   11.9822 C.ar    1  <0>        -0.0449
      8 C8         38.2695   37.2897   10.3991 C.ar    1  <0>        -0.0380
      9 C9         37.2734   38.3304   12.5403 C.ar    1  <0>        -0.0380
     10 C10        38.8523   38.5474   10.0416 C.ar    1  <0>        -0.0294
     11 C11        37.8586   39.5968   12.1865 C.ar    1  <0>        -0.0294
     12 C12        39.8926   29.0353   14.2170 C.ar    1  <0>        -0.0389
     13 C13        39.4560   30.2476   11.9638 C.ar    1  <0>        -0.0389
     14 C14        35.2654   31.3261   12.7376 C.ar    1  <0>         0.0297
     15 C15        40.2415   27.8674   13.4935 C.ar    1  <0>         0.0279
     16 C16        39.8180   29.0349   11.2990 C.ar    1  <0>         0.0279
     17 C17        39.1829   31.4475   14.2429 C.3     1  <0>         0.0358
     18 C18        39.5128   30.1962   13.4185 C.ar    1  <0>        -0.0275
     19 C19        37.4994   37.2167   11.6325 C.ar    1  <0>         0.0338
     20 C20        38.9116   42.1507   10.8058 C.ar    1  <0>         0.0831
     21 C21        38.6362   39.6782   10.9410 C.ar    1  <0>         0.0832
     22 C22        36.8039   33.7126   12.4463 C.ar    1  <0>         0.0767
     23 C23        37.3323   32.5394   13.0552 C.ar    1  <0>         0.1311
     24 C24        37.6264   34.9239   12.2390 C.2     1  <0>         0.2516
     25 N1         40.1830   27.9461   12.1125 N.ar    1  <0>        -0.2632
     26 N2         36.5604   31.3803   13.1855 N.ar    1  <0>        -0.2397
     27 N3         38.6183   32.5700   13.5082 N.pl3   1  <0>        -0.3244
     28 N4         36.9327   36.0499   12.0128 N.am    1  <0>        -0.2814
     29 O1         38.8528   34.9445   12.2475 O.2     1  <0>        -0.2697
     30 O2         39.2669   40.8628   10.4648 O.3     1  <0>        -0.3093
     31 H1         37.9769   45.8250   11.7084 H       1  <0>         0.0618
     32 H2         39.4224   44.5243   13.3253 H       1  <0>         0.0618
     33 H3         37.1193   44.8434    9.5568 H       1  <0>         0.0618
     34 H4         33.6316   32.4276   11.7655 H       1  <0>         0.0633
     35 H5         40.0279   42.1172   12.7194 H       1  <0>         0.0643
     36 H6         37.7264   42.4293    8.9607 H       1  <0>         0.0643
     37 H7         34.9947   34.5197   11.5209 H       1  <0>         0.0627
     38 H8         38.3972   36.4199    9.7718 H       1  <0>         0.0637
     39 H9         36.6908   38.2122   13.4420 H       1  <0>         0.0637
     40 H10        39.4324   38.6567    9.1372 H       1  <0>         0.0644
     41 H11        37.7303   40.4632   12.8183 H       1  <0>         0.0644
     42 H12        39.9070   29.0643   15.2965 H       1  <0>         0.0636
     43 H13        39.1618   31.1371   11.4267 H       1  <0>         0.0636
     44 H14        34.6995   30.4134   12.8531 H       1  <0>         0.0830
     45 H15        40.5390   26.9589   13.9960 H       1  <0>         0.0829
     46 H16        39.8116   28.9577   10.2218 H       1  <0>         0.0829
     47 H17        38.4469   31.1523   15.0052 H       1  <0>         0.0511
     48 H18        40.1212   31.7947   14.7001 H       1  <0>         0.0511
     49 H19        38.6698   33.3536   14.1274 H       1  <0>         0.1478
     50 H20        35.9402   36.0244   12.1324 H       1  <0>         0.1551
@<TRIPOS>BOND
     1     1     2   ar
     2     1     3   ar
     3     2     5   ar
     4     3     6   ar
     5     4     7   ar
     6     4    14   ar
     7     5    20   ar
     8     6    20   ar
     9     7    22   ar
    10     8    10   ar
    11     8    19   ar
    12     9    11   ar
    13     9    19   ar
    14    10    21   ar
    15    11    21   ar
    16    12    15   ar
    17    12    18   ar
    18    13    16   ar
    19    13    18   ar
    20    14    26   ar
    21    15    25   ar
    22    16    25   ar
    23    17    18    1
    24    17    27    1
    25    19    28    1
    26    20    30    1
    27    21    30    1
    28    22    23   ar
    29    22    24    1
    30    23    26   ar
    31    23    27    1
    32    24    28   am
    33    24    29    2
    34     1    31    1
    35     2    32    1
    36     3    33    1
    37     4    34    1
    38     5    35    1
    39     6    36    1
    40     7    37    1
    41     8    38    1
    42     9    39    1
    43    10    40    1
    44    11    41    1
    45    12    42    1
    46    13    43    1
    47    14    44    1
    48    15    45    1
    49    16    46    1
    50    17    47    1
    51    17    48    1
    52    27    49    1
    53    28    50    1
@<TRIPOS>SUBSTRUCTURE
     1 <0>         1 TEMP              0 ****  ****    0 ROOT

