
##########                                Name:        608_501_2P2I
##########                    Molecular_Weight:             396.448
##########                DOCK_Rotatable_Bonds:                   8
##########                       Formal_Charge:         0.000100359
##########                     HBond_Acceptors:                   6
##########                        HBond_Donors:                   2
##########                         Heavy_Atoms:                  30
##########                            HA_RMSDs:               0.421
##########                            HA_RMSDh:               0.421
##########                            HA_RMSDm:               0.421
##########                          Grid_Score:          -60.271278
##########                     Grid_vdw_energy:          -57.604107
##########                      Grid_es_energy:           -2.667171
##########           Internal_energy_repulsive:           12.201729

@<TRIPOS>MOLECULE
608_501_2P2I
 50 53 1 0 0
SMALL
USER_CHARGES


@<TRIPOS>ATOM
      1 C1         38.4472   44.7842   11.0006 C.ar    1  <0>        -0.0616
      2 C2         39.0525   44.0963   12.1340 C.ar    1  <0>        -0.0593
      3 C3         38.1668   44.1529    9.7164 C.ar    1  <0>        -0.0593
      4 C4         34.3061   32.7019   12.2588 C.ar    1  <0>        -0.0427
      5 C5         39.3895   42.7048   11.9501 C.ar    1  <0>        -0.0312
      6 C6         38.5064   42.7556    9.5406 C.ar    1  <0>        -0.0312
      7 C7         35.1577   33.8364   12.1260 C.ar    1  <0>        -0.0449
      8 C8         38.4407   37.1853   10.6364 C.ar    1  <0>        -0.0380
      9 C9         37.0614   38.4636   12.4038 C.ar    1  <0>        -0.0380
     10 C10        39.1041   38.3959   10.2575 C.ar    1  <0>        -0.0294
     11 C11        37.7266   39.6832   12.0280 C.ar    1  <0>        -0.0294
     12 C12        39.6034   29.1201   14.5220 C.ar    1  <0>        -0.0389
     13 C13        39.4369   30.4126   12.2772 C.ar    1  <0>        -0.0389
     14 C14        34.8377   31.5413   12.9137 C.ar    1  <0>         0.0297
     15 C15        40.1524   28.0183   13.8193 C.ar    1  <0>         0.0279
     16 C16        39.9929   29.2640   11.6327 C.ar    1  <0>         0.0279
     17 C17        38.7133   31.4719   14.5273 C.3     1  <0>         0.0358
     18 C18        39.2660   30.2908   13.7187 C.ar    1  <0>        -0.0275
     19 C19        37.4422   37.2525   11.6937 C.ar    1  <0>         0.0338
     20 C20        39.1124   42.0676   10.6619 C.ar    1  <0>         0.0831
     21 C21        38.7351   39.6229   10.9594 C.ar    1  <0>         0.0832
     22 C22        36.5154   33.8327   12.6265 C.ar    1  <0>         0.0767
     23 C23        36.9605   32.6427   13.2686 C.ar    1  <0>         0.1311
     24 C24        37.4100   34.9923   12.4225 C.2     1  <0>         0.2516
     25 N1         40.3078   28.1634   12.4512 N.ar    1  <0>        -0.2632
     26 N2         36.1214   31.5310   13.3962 N.ar    1  <0>        -0.2397
     27 N3         38.2337   32.6094   13.7563 N.pl3   1  <0>        -0.3244
     28 N4         36.7916   36.1349   12.0875 N.am    1  <0>        -0.2814
     29 O1         38.6318   34.9574   12.5242 O.2     1  <0>        -0.2697
     30 O2         39.4674   40.7473   10.4828 O.3     1  <0>        -0.3093
     31 H1         38.1903   45.8265   11.1192 H       1  <0>         0.0618
     32 H2         39.2403   44.6042   13.0684 H       1  <0>         0.0618
     33 H3         37.7152   44.7155    8.9128 H       1  <0>         0.0618
     34 H4         33.2950   32.7150   11.8794 H       1  <0>         0.0633
     35 H5         39.8405   42.1408   12.7532 H       1  <0>         0.0643
     36 H6         38.3148   42.2459    8.6079 H       1  <0>         0.0643
     37 H7         34.7797   34.7231   11.6388 H       1  <0>         0.0627
     38 H8         38.6742   36.2488   10.1517 H       1  <0>         0.0637
     39 H9         36.3111   38.4482   13.1804 H       1  <0>         0.0637
     40 H10        39.8524   38.4020    9.4788 H       1  <0>         0.0644
     41 H11        37.4916   40.6169   12.5173 H       1  <0>         0.0644
     42 H12        39.4440   29.0947   15.5898 H       1  <0>         0.0636
     43 H13        39.1635   31.3056   11.7349 H       1  <0>         0.0636
     44 H14        34.2185   30.6638   13.0283 H       1  <0>         0.0830
     45 H15        40.4360   27.1084   14.3272 H       1  <0>         0.0829
     46 H16        40.1635   29.2420   10.5665 H       1  <0>         0.0829
     47 H17        37.8646   31.0957   15.1174 H       1  <0>         0.0511
     48 H18        39.5260   31.8344   15.1740 H       1  <0>         0.0511
     49 H19        38.3136   33.4013   14.3617 H       1  <0>         0.1478
     50 H20        35.7929   36.1612   12.1315 H       1  <0>         0.1551
@<TRIPOS>BOND
     1     1     2   ar
     2     1     3   ar
     3     2     5   ar
     4     3     6   ar
     5     4     7   ar
     6     4    14   ar
     7     5    20   ar
     8     6    20   ar
     9     7    22   ar
    10     8    10   ar
    11     8    19   ar
    12     9    11   ar
    13     9    19   ar
    14    10    21   ar
    15    11    21   ar
    16    12    15   ar
    17    12    18   ar
    18    13    16   ar
    19    13    18   ar
    20    14    26   ar
    21    15    25   ar
    22    16    25   ar
    23    17    18    1
    24    17    27    1
    25    19    28    1
    26    20    30    1
    27    21    30    1
    28    22    23   ar
    29    22    24    1
    30    23    26   ar
    31    23    27    1
    32    24    28   am
    33    24    29    2
    34     1    31    1
    35     2    32    1
    36     3    33    1
    37     4    34    1
    38     5    35    1
    39     6    36    1
    40     7    37    1
    41     8    38    1
    42     9    39    1
    43    10    40    1
    44    11    41    1
    45    12    42    1
    46    13    43    1
    47    14    44    1
    48    15    45    1
    49    16    46    1
    50    17    47    1
    51    17    48    1
    52    27    49    1
    53    28    50    1
@<TRIPOS>SUBSTRUCTURE
     1 <0>         1 TEMP              0 ****  ****    0 ROOT

