
##########                                Name:        608_501_2P2I
##########                    Molecular_Weight:             396.448
##########                DOCK_Rotatable_Bonds:                   8
##########                       Formal_Charge:         0.000100359
##########                     HBond_Acceptors:                   6
##########                        HBond_Donors:                   2
##########                         Heavy_Atoms:                  30
##########                            HA_RMSDs:               0.417
##########                            HA_RMSDh:               0.417
##########                            HA_RMSDm:               0.417
##########                          Grid_Score:          -47.222916
##########                     Grid_vdw_energy:          -44.675236
##########                      Grid_es_energy:           -2.547678
##########           Internal_energy_repulsive:           11.425473

@<TRIPOS>MOLECULE
608_501_2P2I
 50 53 1 0 0
SMALL
USER_CHARGES


@<TRIPOS>ATOM
      1 C1         38.2627   44.8325   10.8935 C.ar    1  <0>        -0.0616
      2 C2         39.1067   44.2595   11.9344 C.ar    1  <0>        -0.0593
      3 C3         37.8188   44.1061    9.7094 C.ar    1  <0>        -0.0593
      4 C4         34.6993   32.5960   12.2141 C.ar    1  <0>        -0.0427
      5 C5         39.5189   42.8872   11.7601 C.ar    1  <0>        -0.0312
      6 C6         38.2354   42.7287    9.5429 C.ar    1  <0>        -0.0312
      7 C7         35.5142   33.7511   12.0358 C.ar    1  <0>        -0.0449
      8 C8         38.4585   37.2952   10.4351 C.ar    1  <0>        -0.0380
      9 C9         37.4387   38.4225   12.5206 C.ar    1  <0>        -0.0380
     10 C10        39.0647   38.5321   10.0451 C.ar    1  <0>        -0.0294
     11 C11        38.0474   39.6681   12.1341 C.ar    1  <0>        -0.0294
     12 C12        39.7503   29.0310   14.1511 C.ar    1  <0>        -0.0389
     13 C13        39.3885   30.3650   11.9541 C.ar    1  <0>        -0.0389
     14 C14        35.2793   31.4666   12.8824 C.ar    1  <0>         0.0297
     15 C15        39.9975   27.8696   13.3770 C.ar    1  <0>         0.0279
     16 C16        39.6457   29.1555   11.2367 C.ar    1  <0>         0.0279
     17 C17        39.2355   31.4888   14.2827 C.3     1  <0>         0.0358
     18 C18        39.4561   30.2499   13.4047 C.ar    1  <0>        -0.0275
     19 C19        37.6657   37.2750   11.6560 C.ar    1  <0>         0.0338
     20 C20        39.0781   42.1550   10.5718 C.ar    1  <0>         0.0831
     21 C21        38.8480   39.6961   10.9009 C.ar    1  <0>         0.0832
     22 C22        36.8825   33.7978   12.5043 C.ar    1  <0>         0.0767
     23 C23        37.3766   32.6362   13.1625 C.ar    1  <0>         0.1311
     24 C24        37.7380   34.9775   12.2533 C.2     1  <0>         0.2516
     25 N1         39.9312   28.0090   12.0011 N.ar    1  <0>        -0.2632
     26 N2         36.5733   31.5043   13.3349 N.ar    1  <0>        -0.2397
     27 N3         38.6609   32.6508   13.6209 N.pl3   1  <0>        -0.3244
     28 N4         37.0764   36.1296   12.0660 N.am    1  <0>        -0.2814
     29 O1         38.9629   34.9514   12.1950 O.2     1  <0>        -0.2697
     30 O2         39.5031   40.8551   10.3957 O.3     1  <0>        -0.3093
     31 H1         37.9462   45.8589   11.0060 H       1  <0>         0.0618
     32 H2         39.4098   44.8352   12.7964 H       1  <0>         0.0618
     33 H3         37.1923   44.5853    8.9718 H       1  <0>         0.0618
     34 H4         33.6798   32.5714   11.8582 H       1  <0>         0.0633
     35 H5         40.1448   42.4066   12.4974 H       1  <0>         0.0643
     36 H6         37.9291   42.1511    8.6833 H       1  <0>         0.0643
     37 H7         35.0996   34.6149   11.5376 H       1  <0>         0.0627
     38 H8         38.5856   36.4026    9.8406 H       1  <0>         0.0637
     39 H9         36.8386   38.3432   13.4151 H       1  <0>         0.0637
     40 H10        39.6622   38.6023    9.1482 H       1  <0>         0.0644
     41 H11        37.9196   40.5576   12.7332 H       1  <0>         0.0644
     42 H12        39.7781   29.0146   15.2306 H       1  <0>         0.0636
     43 H13        39.1606   31.2962   11.4569 H       1  <0>         0.0636
     44 H14        34.6886   30.5747   13.0313 H       1  <0>         0.0830
     45 H15        40.2268   26.9206   13.8387 H       1  <0>         0.0829
     46 H16        39.6220   29.1232   10.1574 H       1  <0>         0.0829
     47 H17        38.5473   31.1989   15.0904 H       1  <0>         0.0511
     48 H18        40.2176   31.7893   14.6769 H       1  <0>         0.0511
     49 H19        38.7024   33.3929   14.2900 H       1  <0>         0.1478
     50 H20        36.0917   36.1416   12.2394 H       1  <0>         0.1551
@<TRIPOS>BOND
     1     1     2   ar
     2     1     3   ar
     3     2     5   ar
     4     3     6   ar
     5     4     7   ar
     6     4    14   ar
     7     5    20   ar
     8     6    20   ar
     9     7    22   ar
    10     8    10   ar
    11     8    19   ar
    12     9    11   ar
    13     9    19   ar
    14    10    21   ar
    15    11    21   ar
    16    12    15   ar
    17    12    18   ar
    18    13    16   ar
    19    13    18   ar
    20    14    26   ar
    21    15    25   ar
    22    16    25   ar
    23    17    18    1
    24    17    27    1
    25    19    28    1
    26    20    30    1
    27    21    30    1
    28    22    23   ar
    29    22    24    1
    30    23    26   ar
    31    23    27    1
    32    24    28   am
    33    24    29    2
    34     1    31    1
    35     2    32    1
    36     3    33    1
    37     4    34    1
    38     5    35    1
    39     6    36    1
    40     7    37    1
    41     8    38    1
    42     9    39    1
    43    10    40    1
    44    11    41    1
    45    12    42    1
    46    13    43    1
    47    14    44    1
    48    15    45    1
    49    16    46    1
    50    17    47    1
    51    17    48    1
    52    27    49    1
    53    28    50    1
@<TRIPOS>SUBSTRUCTURE
     1 <0>         1 TEMP              0 ****  ****    0 ROOT

