
##########                                Name:        608_501_2P2I
##########                    Molecular_Weight:             396.448
##########                DOCK_Rotatable_Bonds:                   8
##########                       Formal_Charge:         0.000100359
##########                     HBond_Acceptors:                   6
##########                        HBond_Donors:                   2
##########                         Heavy_Atoms:                  30
##########                            HA_RMSDs:               0.391
##########                            HA_RMSDh:               0.391
##########                            HA_RMSDm:               0.391
##########                          Grid_Score:          -65.043678
##########                     Grid_vdw_energy:          -62.313503
##########                      Grid_es_energy:           -2.730175
##########           Internal_energy_repulsive:           10.945518

@<TRIPOS>MOLECULE
608_501_2P2I
 50 53 1 0 0
SMALL
USER_CHARGES


@<TRIPOS>ATOM
      1 C1         38.2221   44.8069   11.2001 C.ar    1  <0>        -0.0616
      2 C2         38.9664   44.1492   12.2668 C.ar    1  <0>        -0.0593
      3 C3         37.8583   44.1655    9.9421 C.ar    1  <0>        -0.0593
      4 C4         34.5818   32.5612   12.2731 C.ar    1  <0>        -0.0427
      5 C5         39.3595   42.7788   12.0408 C.ar    1  <0>        -0.0312
      6 C6         38.2551   42.7895    9.7238 C.ar    1  <0>        -0.0312
      7 C7         35.4049   33.7095   12.0885 C.ar    1  <0>        -0.0449
      8 C8         38.3940   37.2641   10.5711 C.ar    1  <0>        -0.0380
      9 C9         37.3354   38.3760   12.6455 C.ar    1  <0>        -0.0380
     10 C10        38.9942   38.5076   10.1929 C.ar    1  <0>        -0.0294
     11 C11        37.9380   39.6282   12.2709 C.ar    1  <0>        -0.0294
     12 C12        39.9280   29.0578   14.3302 C.ar    1  <0>        -0.0389
     13 C13        39.6894   30.3220   12.0759 C.ar    1  <0>        -0.0389
     14 C14        35.1657   31.4173   12.9127 C.ar    1  <0>         0.0297
     15 C15        40.4059   27.9287   13.6190 C.ar    1  <0>         0.0279
     16 C16        40.1758   29.1469   11.4232 C.ar    1  <0>         0.0279
     17 C17        39.1137   31.4369   14.3419 C.3     1  <0>         0.0358
     18 C18        39.5876   30.2269   13.5259 C.ar    1  <0>        -0.0275
     19 C19        37.5848   37.2332   11.7809 C.ar    1  <0>         0.0338
     20 C20        38.9989   42.1318   10.7784 C.ar    1  <0>         0.0831
     21 C21        38.7552   39.6671   11.0490 C.ar    1  <0>         0.0832
     22 C22        36.7850   33.7354   12.5228 C.ar    1  <0>         0.0767
     23 C23        37.2824   32.5604   13.1539 C.ar    1  <0>         0.1311
     24 C24        37.6471   34.9088   12.2647 C.2     1  <0>         0.2516
     25 N1         40.4967   28.0487   12.2427 N.ar    1  <0>        -0.2632
     26 N2         36.4711   31.4352   13.3326 N.ar    1  <0>        -0.2397
     27 N3         38.5780   32.5552   13.5798 N.pl3   1  <0>        -0.3244
     28 N4         37.0004   36.0813   12.1795 N.am    1  <0>        -0.2814
     29 O1         38.8637   34.8616   12.1160 O.2     1  <0>        -0.2697
     30 O2         39.4066   40.8335   10.5561 O.3     1  <0>        -0.3093
     31 H1         37.9214   45.8332   11.3508 H       1  <0>         0.0618
     32 H2         39.2123   44.6635   13.1841 H       1  <0>         0.0618
     33 H3         37.3043   44.7054    9.1884 H       1  <0>         0.0618
     34 H4         33.5535   32.5523   11.9430 H       1  <0>         0.0633
     35 H5         39.9129   42.2376   12.7939 H       1  <0>         0.0643
     36 H6         38.0056   42.2732    8.8086 H       1  <0>         0.0643
     37 H7         34.9876   34.5841   11.6116 H       1  <0>         0.0627
     38 H8         38.5374   36.3744    9.9758 H       1  <0>         0.0637
     39 H9         36.7239   38.2886   13.5314 H       1  <0>         0.0637
     40 H10        39.6034   38.5859    9.3046 H       1  <0>         0.0644
     41 H11        37.7939   40.5147   12.8707 H       1  <0>         0.0644
     42 H12        39.8218   29.0530   15.4049 H       1  <0>         0.0636
     43 H13        39.4173   31.2154   11.5335 H       1  <0>         0.0636
     44 H14        34.5691   30.5301   13.0654 H       1  <0>         0.0830
     45 H15        40.6860   27.0176   14.1267 H       1  <0>         0.0829
     46 H16        40.2918   29.1038   10.3503 H       1  <0>         0.0829
     47 H17        38.3158   31.0865   15.0131 H       1  <0>         0.0511
     48 H18        39.9809   31.8109   14.9058 H       1  <0>         0.0511
     49 H19        38.6734   33.3568   14.1699 H       1  <0>         0.1478
     50 H20        36.0312   36.1042   12.4246 H       1  <0>         0.1551
@<TRIPOS>BOND
     1     1     2   ar
     2     1     3   ar
     3     2     5   ar
     4     3     6   ar
     5     4     7   ar
     6     4    14   ar
     7     5    20   ar
     8     6    20   ar
     9     7    22   ar
    10     8    10   ar
    11     8    19   ar
    12     9    11   ar
    13     9    19   ar
    14    10    21   ar
    15    11    21   ar
    16    12    15   ar
    17    12    18   ar
    18    13    16   ar
    19    13    18   ar
    20    14    26   ar
    21    15    25   ar
    22    16    25   ar
    23    17    18    1
    24    17    27    1
    25    19    28    1
    26    20    30    1
    27    21    30    1
    28    22    23   ar
    29    22    24    1
    30    23    26   ar
    31    23    27    1
    32    24    28   am
    33    24    29    2
    34     1    31    1
    35     2    32    1
    36     3    33    1
    37     4    34    1
    38     5    35    1
    39     6    36    1
    40     7    37    1
    41     8    38    1
    42     9    39    1
    43    10    40    1
    44    11    41    1
    45    12    42    1
    46    13    43    1
    47    14    44    1
    48    15    45    1
    49    16    46    1
    50    17    47    1
    51    17    48    1
    52    27    49    1
    53    28    50    1
@<TRIPOS>SUBSTRUCTURE
     1 <0>         1 TEMP              0 ****  ****    0 ROOT

