
##########                                Name:        608_501_2P2I
##########                    Molecular_Weight:             396.448
##########                DOCK_Rotatable_Bonds:                   8
##########                       Formal_Charge:         0.000100359
##########                     HBond_Acceptors:                   6
##########                        HBond_Donors:                   2
##########                         Heavy_Atoms:                  30
##########                            HA_RMSDs:               0.425
##########                            HA_RMSDh:               0.425
##########                            HA_RMSDm:               0.425
##########                          Grid_Score:          -66.682716
##########                     Grid_vdw_energy:          -64.133171
##########                      Grid_es_energy:           -2.549544
##########           Internal_energy_repulsive:           12.392009

@<TRIPOS>MOLECULE
608_501_2P2I
 50 53 1 0 0
SMALL
USER_CHARGES


@<TRIPOS>ATOM
      1 C1         38.2425   44.7893   11.3021 C.ar    1  <0>        -0.0616
      2 C2         38.8200   44.1291   12.4660 C.ar    1  <0>        -0.0593
      3 C3         38.0702   44.1510   10.0024 C.ar    1  <0>        -0.0593
      4 C4         34.5876   32.5764   12.3928 C.ar    1  <0>        -0.0427
      5 C5         39.2428   42.7592   12.2978 C.ar    1  <0>        -0.0312
      6 C6         38.4956   42.7755    9.8423 C.ar    1  <0>        -0.0312
      7 C7         35.4206   33.7234   12.2486 C.ar    1  <0>        -0.0449
      8 C8         38.5313   37.2390   10.8344 C.ar    1  <0>        -0.0380
      9 C9         37.3027   38.3775   12.7976 C.ar    1  <0>        -0.0380
     10 C10        39.1488   38.4814   10.4813 C.ar    1  <0>        -0.0294
     11 C11        37.9221   39.6287   12.4482 C.ar    1  <0>        -0.0294
     12 C12        40.0682   28.9923   13.9711 C.ar    1  <0>        -0.0389
     13 C13        39.4385   30.4328   11.9058 C.ar    1  <0>        -0.0389
     14 C14        35.1562   31.4116   13.0080 C.ar    1  <0>         0.0297
     15 C15        40.4972   27.9650   13.0938 C.ar    1  <0>         0.0279
     16 C16        39.8869   29.3552   11.0805 C.ar    1  <0>         0.0279
     17 C17        39.1390   31.3016   14.3274 C.3     1  <0>         0.0358
     18 C18        39.5532   30.2029   13.3397 C.ar    1  <0>        -0.0275
     19 C19        37.6293   37.2218   11.9770 C.ar    1  <0>         0.0338
     20 C20        39.0743   42.1153   10.9942 C.ar    1  <0>         0.0831
     21 C21        38.8329   39.6537   11.2939 C.ar    1  <0>         0.0832
     22 C22        36.7956   33.7278   12.6993 C.ar    1  <0>         0.0767
     23 C23        37.2776   32.5328   13.3042 C.ar    1  <0>         0.1311
     24 C24        37.6686   34.9016   12.4828 C.2     1  <0>         0.2516
     25 N1         40.3811   28.2124   11.7365 N.ar    1  <0>        -0.2632
     26 N2         36.4567   31.4090   13.4432 N.ar    1  <0>        -0.2397
     27 N3         38.5681   32.5070   13.7447 N.pl3   1  <0>        -0.3244
     28 N4         37.0252   36.0714   12.3499 N.am    1  <0>        -0.2814
     29 O1         38.8920   34.8567   12.4064 O.2     1  <0>        -0.2697
     30 O2         39.5111   40.8175   10.8320 O.3     1  <0>        -0.3093
     31 H1         37.9223   45.8152   11.4088 H       1  <0>         0.0618
     32 H2         38.9265   44.6411   13.4110 H       1  <0>         0.0618
     33 H3         37.6343   44.6927    9.1759 H       1  <0>         0.0618
     34 H4         33.5632   32.5836   12.0506 H       1  <0>         0.0633
     35 H5         39.6782   42.2162   13.1236 H       1  <0>         0.0643
     36 H6         38.3853   42.2614    8.8989 H       1  <0>         0.0643
     37 H7         35.0148   34.6133   11.7906 H       1  <0>         0.0627
     38 H8         38.7288   36.3402   10.2691 H       1  <0>         0.0637
     39 H9         36.6239   38.3000   13.6341 H       1  <0>         0.0637
     40 H10        39.8254   38.5497    9.6424 H       1  <0>         0.0644
     41 H11        37.7235   40.5244   13.0179 H       1  <0>         0.0644
     42 H12        40.1194   28.8852   15.0445 H       1  <0>         0.0636
     43 H13        39.0435   31.3507   11.4961 H       1  <0>         0.0636
     44 H14        34.5519   30.5249   13.1299 H       1  <0>         0.0830
     45 H15        40.8960   27.0331   13.4665 H       1  <0>         0.0829
     46 H16        39.8482   29.4152   10.0028 H       1  <0>         0.0829
     47 H17        38.3796   30.8706   14.9965 H       1  <0>         0.0511
     48 H18        40.0414   31.6014   14.8804 H       1  <0>         0.0511
     49 H19        38.6265   33.2070   14.4565 H       1  <0>         0.1478
     50 H20        36.0432   36.0936   12.5373 H       1  <0>         0.1551
@<TRIPOS>BOND
     1     1     2   ar
     2     1     3   ar
     3     2     5   ar
     4     3     6   ar
     5     4     7   ar
     6     4    14   ar
     7     5    20   ar
     8     6    20   ar
     9     7    22   ar
    10     8    10   ar
    11     8    19   ar
    12     9    11   ar
    13     9    19   ar
    14    10    21   ar
    15    11    21   ar
    16    12    15   ar
    17    12    18   ar
    18    13    16   ar
    19    13    18   ar
    20    14    26   ar
    21    15    25   ar
    22    16    25   ar
    23    17    18    1
    24    17    27    1
    25    19    28    1
    26    20    30    1
    27    21    30    1
    28    22    23   ar
    29    22    24    1
    30    23    26   ar
    31    23    27    1
    32    24    28   am
    33    24    29    2
    34     1    31    1
    35     2    32    1
    36     3    33    1
    37     4    34    1
    38     5    35    1
    39     6    36    1
    40     7    37    1
    41     8    38    1
    42     9    39    1
    43    10    40    1
    44    11    41    1
    45    12    42    1
    46    13    43    1
    47    14    44    1
    48    15    45    1
    49    16    46    1
    50    17    47    1
    51    17    48    1
    52    27    49    1
    53    28    50    1
@<TRIPOS>SUBSTRUCTURE
     1 <0>         1 TEMP              0 ****  ****    0 ROOT

