
##########                                Name:        608_501_2P2I
##########                    Molecular_Weight:             396.448
##########                DOCK_Rotatable_Bonds:                   8
##########                       Formal_Charge:         0.000100359
##########                     HBond_Acceptors:                   6
##########                        HBond_Donors:                   2
##########                         Heavy_Atoms:                  30
##########                            HA_RMSDs:               0.403
##########                            HA_RMSDh:               0.403
##########                            HA_RMSDm:               0.403
##########                          Grid_Score:          -68.339630
##########                     Grid_vdw_energy:          -65.471046
##########                      Grid_es_energy:           -2.868586
##########           Internal_energy_repulsive:           11.734873

@<TRIPOS>MOLECULE
608_501_2P2I
 50 53 1 0 0
SMALL
USER_CHARGES


@<TRIPOS>ATOM
      1 C1         38.2984   44.7209   11.3232 C.ar    1  <0>        -0.0616
      2 C2         38.8187   43.9621   12.4535 C.ar    1  <0>        -0.0593
      3 C3         38.1110   44.1700    9.9861 C.ar    1  <0>        -0.0593
      4 C4         34.4207   32.4925   12.3635 C.ar    1  <0>        -0.0427
      5 C5         39.1658   42.5823   12.2104 C.ar    1  <0>        -0.0312
      6 C6         38.4601   42.7839    9.7508 C.ar    1  <0>        -0.0312
      7 C7         35.2603   33.6237   12.1496 C.ar    1  <0>        -0.0449
      8 C8         38.2875   37.1617   10.7156 C.ar    1  <0>        -0.0380
      9 C9         37.2303   38.3284   12.7604 C.ar    1  <0>        -0.0380
     10 C10        38.9064   38.3894   10.3168 C.ar    1  <0>        -0.0294
     11 C11        37.8516   39.5649   12.3650 C.ar    1  <0>        -0.0294
     12 C12        39.8005   29.1102   14.3835 C.ar    1  <0>        -0.0389
     13 C13        39.2759   30.4884   12.2475 C.ar    1  <0>        -0.0389
     14 C14        34.9473   31.4080   13.1414 C.ar    1  <0>         0.0297
     15 C15        40.2590   28.0521   13.5592 C.ar    1  <0>         0.0279
     16 C16        39.7509   29.3815   11.4776 C.ar    1  <0>         0.0279
     17 C17        38.8768   31.4366   14.6245 C.3     1  <0>         0.0358
     18 C18        39.3247   30.3037   13.6916 C.ar    1  <0>        -0.0275
     19 C19        37.4702   37.1654   11.9204 C.ar    1  <0>         0.0338
     20 C20        38.9819   42.0257   10.8692 C.ar    1  <0>         0.0831
     21 C21        38.6771   39.5688   11.1480 C.ar    1  <0>         0.0832
     22 C22        36.6014   33.6899   12.6891 C.ar    1  <0>         0.0767
     23 C23        37.0423   32.5734   13.4543 C.ar    1  <0>         0.1311
     24 C24        37.4858   34.8400   12.4032 C.2     1  <0>         0.2516
     25 N1         40.2054   28.2567   12.1910 N.ar    1  <0>        -0.2632
     26 N2         36.2150   31.4649   13.6613 N.ar    1  <0>        -0.2397
     27 N3         38.2997   32.6078   13.9813 N.pl3   1  <0>        -0.3244
     28 N4         36.8682   36.0293   12.3378 N.am    1  <0>        -0.2814
     29 O1         38.6954   34.7604   12.2161 O.2     1  <0>        -0.2697
     30 O2         39.3469   40.7165   10.6364 O.3     1  <0>        -0.3093
     31 H1         38.0353   45.7557   11.4859 H       1  <0>         0.0618
     32 H2         38.9390   44.4115   13.4282 H       1  <0>         0.0618
     33 H3         37.7199   44.7829    9.1875 H       1  <0>         0.0618
     34 H4         33.4221   32.4529   11.9541 H       1  <0>         0.0633
     35 H5         39.5563   41.9681   13.0082 H       1  <0>         0.0643
     36 H6         38.3359   42.3326    8.7775 H       1  <0>         0.0643
     37 H7         34.8858   34.4539   11.5692 H       1  <0>         0.0627
     38 H8         38.4230   36.2585   10.1391 H       1  <0>         0.0637
     39 H9         36.6121   38.2666   13.6438 H       1  <0>         0.0637
     40 H10        39.5221   38.4421    9.4311 H       1  <0>         0.0644
     41 H11        37.7154   40.4650   12.9461 H       1  <0>         0.0644
     42 H12        39.8030   29.0373   15.4609 H       1  <0>         0.0636
     43 H13        38.9076   31.3955   11.7916 H       1  <0>         0.0636
     44 H14        34.3369   30.5350   13.3199 H       1  <0>         0.0830
     45 H15        40.6326   27.1298   13.9788 H       1  <0>         0.0829
     46 H16        39.7606   29.4072   10.3979 H       1  <0>         0.0829
     47 H17        38.1115   31.0227   15.2975 H       1  <0>         0.0511
     48 H18        39.7645   31.7728   15.1803 H       1  <0>         0.0511
     49 H19        38.2815   33.3213   14.6817 H       1  <0>         0.1478
     50 H20        35.9082   36.0780   12.6135 H       1  <0>         0.1551
@<TRIPOS>BOND
     1     1     2   ar
     2     1     3   ar
     3     2     5   ar
     4     3     6   ar
     5     4     7   ar
     6     4    14   ar
     7     5    20   ar
     8     6    20   ar
     9     7    22   ar
    10     8    10   ar
    11     8    19   ar
    12     9    11   ar
    13     9    19   ar
    14    10    21   ar
    15    11    21   ar
    16    12    15   ar
    17    12    18   ar
    18    13    16   ar
    19    13    18   ar
    20    14    26   ar
    21    15    25   ar
    22    16    25   ar
    23    17    18    1
    24    17    27    1
    25    19    28    1
    26    20    30    1
    27    21    30    1
    28    22    23   ar
    29    22    24    1
    30    23    26   ar
    31    23    27    1
    32    24    28   am
    33    24    29    2
    34     1    31    1
    35     2    32    1
    36     3    33    1
    37     4    34    1
    38     5    35    1
    39     6    36    1
    40     7    37    1
    41     8    38    1
    42     9    39    1
    43    10    40    1
    44    11    41    1
    45    12    42    1
    46    13    43    1
    47    14    44    1
    48    15    45    1
    49    16    46    1
    50    17    47    1
    51    17    48    1
    52    27    49    1
    53    28    50    1
@<TRIPOS>SUBSTRUCTURE
     1 <0>         1 TEMP              0 ****  ****    0 ROOT

