
##########                                Name:        608_501_2P2I
##########                    Molecular_Weight:             396.448
##########                DOCK_Rotatable_Bonds:                   8
##########                       Formal_Charge:         0.000100359
##########                     HBond_Acceptors:                   6
##########                        HBond_Donors:                   2
##########                         Heavy_Atoms:                  30
##########                            HA_RMSDs:               0.299
##########                            HA_RMSDh:               0.299
##########                            HA_RMSDm:               0.299
##########                          Grid_Score:          -64.479584
##########                     Grid_vdw_energy:          -61.819832
##########                      Grid_es_energy:           -2.659748
##########           Internal_energy_repulsive:           11.747684

@<TRIPOS>MOLECULE
608_501_2P2I
 50 53 1 0 0
SMALL
USER_CHARGES


@<TRIPOS>ATOM
      1 C1         38.2725   44.6048   11.2452 C.ar    1  <0>        -0.0616
      2 C2         38.8862   43.8780   12.3494 C.ar    1  <0>        -0.0593
      3 C3         38.0046   44.0252    9.9342 C.ar    1  <0>        -0.0593
      4 C4         34.4000   32.4580   12.4594 C.ar    1  <0>        -0.0427
      5 C5         39.2452   42.5012   12.1066 C.ar    1  <0>        -0.0312
      6 C6         38.3664   42.6423    9.6991 C.ar    1  <0>        -0.0312
      7 C7         35.2445   33.5844   12.2397 C.ar    1  <0>        -0.0449
      8 C8         38.2724   37.0624   10.6022 C.ar    1  <0>        -0.0380
      9 C9         37.3145   38.1902   12.7166 C.ar    1  <0>        -0.0380
     10 C10        38.8836   38.2943   10.2044 C.ar    1  <0>        -0.0294
     11 C11        37.9284   39.4307   12.3223 C.ar    1  <0>        -0.0294
     12 C12        39.9317   28.8055   13.9944 C.ar    1  <0>        -0.0389
     13 C13        39.6117   30.2046   11.8317 C.ar    1  <0>        -0.0389
     14 C14        34.9892   31.2847   13.0377 C.ar    1  <0>         0.0297
     15 C15        40.4412   27.7448   13.2042 C.ar    1  <0>         0.0279
     16 C16        40.1323   29.0945   11.0967 C.ar    1  <0>         0.0279
     17 C17        39.0283   31.1455   14.1734 C.3     1  <0>         0.0358
     18 C18        39.5353   30.0108   13.2734 C.ar    1  <0>        -0.0275
     19 C19        37.5081   37.0448   11.8412 C.ar    1  <0>         0.0338
     20 C20        38.9808   41.9160   10.7913 C.ar    1  <0>         0.0831
     21 C21        38.7003   39.4562   11.0709 C.ar    1  <0>         0.0832
     22 C22        36.6508   33.5600   12.5800 C.ar    1  <0>         0.0767
     23 C23        37.1522   32.3583   13.1552 C.ar    1  <0>         0.1311
     24 C24        37.5301   34.7116   12.2849 C.2     1  <0>         0.2516
     25 N1         40.5067   27.9583   11.8378 N.ar    1  <0>        -0.2632
     26 N2         36.3197   31.2548   13.3686 N.ar    1  <0>        -0.2397
     27 N3         38.4726   32.3056   13.4923 N.pl3   1  <0>        -0.3244
     28 N4         36.9154   35.9040   12.2590 N.am    1  <0>        -0.2814
     29 O1         38.7328   34.6311   12.0577 O.2     1  <0>        -0.2697
     30 O2         39.3568   40.6103   10.5564 O.3     1  <0>        -0.3093
     31 H1         37.9990   45.6368   11.4080 H       1  <0>         0.0618
     32 H2         39.0641   44.3480   13.3054 H       1  <0>         0.0618
     33 H3         37.5459   44.6149    9.1543 H       1  <0>         0.0618
     34 H4         33.3521   32.4866   12.1994 H       1  <0>         0.0633
     35 H5         39.7034   41.9101   12.8858 H       1  <0>         0.0643
     36 H6         38.1847   42.1704    8.7448 H       1  <0>         0.0643
     37 H7         34.8239   34.4804   11.8076 H       1  <0>         0.0627
     38 H8         38.3753   36.1715   10.0004 H       1  <0>         0.0637
     39 H9         36.7346   38.1129   13.6245 H       1  <0>         0.0637
     40 H10        39.4608   38.3625    9.2942 H       1  <0>         0.0644
     41 H11        37.8248   40.3184   12.9287 H       1  <0>         0.0644
     42 H12        39.8419   28.7263   15.0677 H       1  <0>         0.0636
     43 H13        39.2978   31.1204   11.3529 H       1  <0>         0.0636
     44 H14        34.3765   30.4130   13.2148 H       1  <0>         0.0830
     45 H15        40.7631   26.8140   13.6471 H       1  <0>         0.0829
     46 H16        40.2337   29.1264   10.0219 H       1  <0>         0.0829
     47 H17        38.2339   30.7282   14.8096 H       1  <0>         0.0511
     48 H18        39.8828   31.4954   14.7712 H       1  <0>         0.0511
     49 H19        38.6280   33.0806   14.1049 H       1  <0>         0.1478
     50 H20        35.9649   35.9514   12.5661 H       1  <0>         0.1551
@<TRIPOS>BOND
     1     1     2   ar
     2     1     3   ar
     3     2     5   ar
     4     3     6   ar
     5     4     7   ar
     6     4    14   ar
     7     5    20   ar
     8     6    20   ar
     9     7    22   ar
    10     8    10   ar
    11     8    19   ar
    12     9    11   ar
    13     9    19   ar
    14    10    21   ar
    15    11    21   ar
    16    12    15   ar
    17    12    18   ar
    18    13    16   ar
    19    13    18   ar
    20    14    26   ar
    21    15    25   ar
    22    16    25   ar
    23    17    18    1
    24    17    27    1
    25    19    28    1
    26    20    30    1
    27    21    30    1
    28    22    23   ar
    29    22    24    1
    30    23    26   ar
    31    23    27    1
    32    24    28   am
    33    24    29    2
    34     1    31    1
    35     2    32    1
    36     3    33    1
    37     4    34    1
    38     5    35    1
    39     6    36    1
    40     7    37    1
    41     8    38    1
    42     9    39    1
    43    10    40    1
    44    11    41    1
    45    12    42    1
    46    13    43    1
    47    14    44    1
    48    15    45    1
    49    16    46    1
    50    17    47    1
    51    17    48    1
    52    27    49    1
    53    28    50    1
@<TRIPOS>SUBSTRUCTURE
     1 <0>         1 TEMP              0 ****  ****    0 ROOT

