
##########                                Name:          5BM_1_3EQH
##########                    Molecular_Weight:             380.497
##########                DOCK_Rotatable_Bonds:                   9
##########                       Formal_Charge:        -0.000399947
##########                     HBond_Acceptors:                   8
##########                        HBond_Donors:                   8
##########                         Heavy_Atoms:                  26
##########                            HA_RMSDs:               0.290
##########                            HA_RMSDh:               0.290
##########                            HA_RMSDm:               0.290
##########                          Grid_Score:          -45.978001
##########                     Grid_vdw_energy:          -44.971668
##########                      Grid_es_energy:           -1.006333
##########           Internal_energy_repulsive:            5.332774

@<TRIPOS>MOLECULE
5BM_1_3EQH
 42 43 1 0 0
SMALL
USER_CHARGES


@<TRIPOS>ATOM
      1 C1         -5.4827   54.1537   29.7157 C.ar    1  <0>        -0.0600
      2 C2          2.4096   63.8749   33.0043 C.ar    1  <0>        -0.0600
      3 C3         -4.3783   55.0287   29.6026 C.ar    1  <0>        -0.0606
      4 C4          3.0958   62.8996   33.7442 C.ar    1  <0>        -0.0606
      5 C5         -5.7952   53.5583   30.9445 C.ar    1  <0>        -0.0400
      6 C6          0.9895   63.9004   32.9632 C.ar    1  <0>        -0.0400
      7 C7         -3.5809   55.3015   30.7251 C.ar    1  <0>        -0.0462
      8 C8          2.3900   61.9352   34.4422 C.ar    1  <0>        -0.0462
      9 C9         -0.4312   56.4674   33.9011 C.1     1  <0>         0.1029
     10 C10        -2.1643   58.8166   35.6999 C.1     1  <0>         0.1029
     11 C11        -4.9970   53.8261   32.0800 C.ar    1  <0>         0.0385
     12 C12         0.2608   62.9217   33.6691 C.ar    1  <0>         0.0385
     13 C13        -3.8885   54.7102   31.9686 C.ar    1  <0>         0.0345
     14 C14         0.9923   61.9290   34.4054 C.ar    1  <0>         0.0345
     15 C15        -1.5567   57.3429   33.8853 C.2     1  <0>         0.0988
     16 C16        -1.3617   58.6070   34.5386 C.2     1  <0>         0.0988
     17 C17        -2.7579   56.7846   33.6458 C.2     1  <0>         0.0824
     18 C18        -0.2942   59.4017   34.2698 C.2     1  <0>         0.0824
     19 N1         -5.3143   53.2441   33.2479 N.pl3   1  <0>        -0.3571
     20 N2         -1.0873   62.9402   33.6346 N.pl3   1  <0>        -0.3571
     21 N3         -3.9936   57.3823   33.5885 N.pl3   1  <0>        -0.3516
     22 N4          0.5869   59.3319   33.1819 N.pl3   1  <0>        -0.3516
     23 N5          0.4783   55.7689   33.9142 N.1     1  <0>        -0.1908
     24 N6         -2.8595   58.9425   36.6370 N.1     1  <0>        -0.1908
     25 S1         -2.8639   55.0349   33.3852 S.3     1  <0>        -0.0715
     26 S2          0.1611   60.7065   35.3223 S.3     1  <0>        -0.0715
     27 H1         -6.0902   53.9426   28.8481 H       1  <0>         0.0618
     28 H2          2.9703   64.6184   32.4570 H       1  <0>         0.0618
     29 H3         -4.1480   55.4875   28.6524 H       1  <0>         0.0618
     30 H4          4.1755   62.9016   33.7689 H       1  <0>         0.0618
     31 H5         -6.6444   52.8957   31.0243 H       1  <0>         0.0636
     32 H6          0.4737   64.6618   32.3969 H       1  <0>         0.0636
     33 H7         -2.7323   55.9636   30.6369 H       1  <0>         0.0629
     34 H8          2.9187   61.1877   35.0152 H       1  <0>         0.0629
     35 H9         -4.6624   53.5288   33.9507 H       1  <0>         0.1424
     36 H10        -6.2369   53.5198   33.5178 H       1  <0>         0.1424
     37 H11        -1.4457   62.1845   34.1829 H       1  <0>         0.1424
     38 H12        -1.4183   63.8076   34.0062 H       1  <0>         0.1424
     39 H13        -4.6848   56.6983   33.3553 H       1  <0>         0.1428
     40 H14        -4.2103   57.7853   34.4777 H       1  <0>         0.1428
     41 H15         1.2911   60.0355   33.2770 H       1  <0>         0.1428
     42 H16         1.0180   58.4299   33.1596 H       1  <0>         0.1428
@<TRIPOS>BOND
     1     1     3   ar
     2     1     5   ar
     3     2     4   ar
     4     2     6   ar
     5     3     7   ar
     6     4     8   ar
     7     5    11   ar
     8     6    12   ar
     9     7    13   ar
    10     8    14   ar
    11     9    15    1
    12     9    23    3
    13    10    16    1
    14    10    24    3
    15    11    13   ar
    16    11    19    1
    17    12    14   ar
    18    12    20    1
    19    13    25    1
    20    14    26    1
    21    15    16    1
    22    15    17    2
    23    16    18    2
    24    17    21    1
    25    17    25    1
    26    18    22    1
    27    18    26    1
    28     1    27    1
    29     2    28    1
    30     3    29    1
    31     4    30    1
    32     5    31    1
    33     6    32    1
    34     7    33    1
    35     8    34    1
    36    19    35    1
    37    19    36    1
    38    20    37    1
    39    20    38    1
    40    21    39    1
    41    21    40    1
    42    22    41    1
    43    22    42    1
@<TRIPOS>SUBSTRUCTURE
     1 <0>         1 TEMP              0 ****  ****    0 ROOT

