
##########                                Name:        BMI_301_2OJ9
##########                    Molecular_Weight:             397.439
##########                DOCK_Rotatable_Bonds:                   5
##########                       Formal_Charge:         0.000199959
##########                     HBond_Acceptors:                   8
##########                        HBond_Donors:                   3
##########                         Heavy_Atoms:                  30
##########                            HA_RMSDs:               0.474
##########                            HA_RMSDh:               0.474
##########                            HA_RMSDm:               0.474
##########                          Grid_Score:          -53.789448
##########                     Grid_vdw_energy:          -52.354408
##########                      Grid_es_energy:           -1.435040
##########           Internal_energy_repulsive:           19.364218

@<TRIPOS>MOLECULE
BMI_301_2OJ9
 49 53 1 0 0
SMALL
USER_CHARGES


@<TRIPOS>ATOM
      1 C1          6.1523   -7.3510   24.0943 C.3     1  <0>        -0.0378
      2 C2          8.8496   -4.4445   24.4772 C.ar    1  <0>        -0.0586
      3 C3          9.3291   -5.3813   23.5529 C.ar    1  <0>        -0.0436
      4 C4          7.9359   -3.5332   24.0154 C.ar    1  <0>        -0.0388
      5 C5          4.0987   -2.3086   20.2926 C.2     1  <0>        -0.0261
      6 C6          3.3659   -2.3371   19.1678 C.2     1  <0>        -0.0017
      7 C7          8.8587   -5.3753   22.2212 C.ar    1  <0>         0.0279
      8 C8          6.5864  -13.5609   21.9878 C.2     1  <0>         0.0434
      9 C9          6.1893  -12.3492   22.6057 C.2     1  <0>         0.0209
     10 C10         6.0835   -9.4152   22.8043 C.ar    1  <0>        -0.0352
     11 C11         5.1869   -9.4230   20.6783 C.ar    1  <0>        -0.0127
     12 C12         6.4736  -12.0187   20.4670 C.2     1  <0>         0.0921
     13 C13         6.4526   -2.5860   22.2363 C.3     1  <0>         0.0515
     14 C14         5.8187   -8.1340   22.8650 C.ar    1  <0>        -0.0254
     15 C15         7.5138   -3.5556   22.7038 C.ar    1  <0>         0.0582
     16 C16         4.4078   -3.5300   20.9164 C.2     1  <0>         0.0442
     17 C17         5.7872  -10.0580   21.7024 C.ar    1  <0>         0.0414
     18 C18         4.9092   -8.0564   20.8112 C.ar    1  <0>         0.0891
     19 C19         3.9564   -4.6900   20.2238 C.2     1  <0>         0.0977
     20 C20         5.2352   -7.4649   21.8894 C.ar    1  <0>         0.0612
     21 C21         3.2043   -4.6174   18.9605 C.2     1  <0>         0.2530
     22 C22         4.3279   -5.9835   20.7269 C.2     1  <0>         0.1377
     23 N1          2.9310   -3.4054   18.5106 N.am    1  <0>        -0.2878
     24 N2          4.9054   -6.1455   21.7899 N.pl3   1  <0>        -0.2969
     25 N3          6.7707  -13.3185   20.6470 N.2     1  <0>        -0.2462
     26 N4          7.9693   -4.4731   21.8137 N.ar    1  <0>        -0.2583
     27 N5          4.3321   -7.0895   20.0368 N.2     1  <0>        -0.2297
     28 N6          5.1911   -3.4808   22.1280 N.pl3   1  <0>        -0.3375
     29 N7          6.1221  -11.4161   21.6067 N.pl3   1  <0>        -0.2652
     30 O1          2.7755   -5.7068   18.3884 O.2     1  <0>        -0.2697
     31 H1          7.1673   -6.9371   24.0019 H       1  <0>         0.0278
     32 H2          5.4307   -6.5292   24.2125 H       1  <0>         0.0278
     33 H3          6.1041   -8.0106   24.9733 H       1  <0>         0.0278
     34 H4          9.1838   -4.4405   25.5043 H       1  <0>         0.0619
     35 H5         10.0625   -6.1121   23.8602 H       1  <0>         0.0633
     36 H6          7.5411   -2.7869   24.6891 H       1  <0>         0.0636
     37 H7          4.4416   -1.3721   20.7071 H       1  <0>         0.0649
     38 H8          3.0990   -1.3783   18.7485 H       1  <0>         0.0783
     39 H9          9.2260   -6.1135   21.5236 H       1  <0>         0.0829
     40 H10         6.7211  -14.5106   22.4842 H       1  <0>         0.0843
     41 H11         5.9815  -12.1934   23.6540 H       1  <0>         0.0803
     42 H12         6.5344   -9.9283   23.6409 H       1  <0>         0.0639
     43 H13         4.9256   -9.9548   19.7754 H       1  <0>         0.0658
     44 H14         6.5145  -11.5192   19.5103 H       1  <0>         0.1006
     45 H15         6.3084   -1.7635   22.9523 H       1  <0>         0.0526
     46 H16         6.7138   -2.1314   21.2693 H       1  <0>         0.0526
     47 H17         2.3955   -3.2926   17.6735 H       1  <0>         0.1546
     48 H18         5.1017   -5.4367   22.4674 H       1  <0>         0.1536
     49 H19         5.5087   -4.4162   22.2831 H       1  <0>         0.1465
@<TRIPOS>BOND
     1     1    14    1
     2     2     3   ar
     3     2     4   ar
     4     3     7   ar
     5     4    15   ar
     6     5     6    2
     7     5    16    1
     8     6    23    1
     9     7    26   ar
    10     8     9    2
    11     8    25    1
    12     9    29    1
    13    10    14   ar
    14    10    17   ar
    15    11    17   ar
    16    11    18   ar
    17    12    25    2
    18    12    29    1
    19    13    15    1
    20    13    28    1
    21    14    20   ar
    22    15    26   ar
    23    16    19    2
    24    16    28    1
    25    17    29    1
    26    18    20   ar
    27    18    27    1
    28    19    21    1
    29    19    22    1
    30    20    24    1
    31    21    23   am
    32    21    30    2
    33    22    24    1
    34    22    27    2
    35     1    31    1
    36     1    32    1
    37     1    33    1
    38     2    34    1
    39     3    35    1
    40     4    36    1
    41     5    37    1
    42     6    38    1
    43     7    39    1
    44     8    40    1
    45     9    41    1
    46    10    42    1
    47    11    43    1
    48    12    44    1
    49    13    45    1
    50    13    46    1
    51    23    47    1
    52    24    48    1
    53    28    49    1
@<TRIPOS>SUBSTRUCTURE
     1 <0>         1 TEMP              0 ****  ****    0 ROOT

