
##########                                Name:        PD5_601_3EL8
##########                    Molecular_Weight:             455.443
##########                DOCK_Rotatable_Bonds:                   7
##########                       Formal_Charge:        -2.98023e-07
##########                     HBond_Acceptors:                  11
##########                        HBond_Donors:                   4
##########                         Heavy_Atoms:                  33
##########                            HA_RMSDs:               0.982
##########                            HA_RMSDh:               0.982
##########                            HA_RMSDm:               0.952
##########                          Grid_Score:          -59.499672
##########                     Grid_vdw_energy:          -58.556549
##########                      Grid_es_energy:           -0.943122
##########           Internal_energy_repulsive:           25.334915

@<TRIPOS>MOLECULE
PD5_601_3EL8
 53 56 1 0 0
SMALL
USER_CHARGES


@<TRIPOS>ATOM
      1 C1          3.3570   11.3178    4.9912 C.3     1  <0>        -0.0448
      2 C2          3.7400    9.4764    3.3136 C.3     1  <0>        -0.0448
      3 C3         -4.7256    0.6138    9.0490 C.ar    1  <0>        -0.0595
      4 C4         -4.1077   -0.4333    8.3783 C.ar    1  <0>        -0.0500
      5 C5         -3.9842    1.7405    9.3876 C.ar    1  <0>        -0.0404
      6 C6          2.7330    5.6132    8.0521 C.ar    1  <0>        -0.0507
      7 C7          1.2742    7.5143    8.1745 C.ar    1  <0>        -0.0507
      8 C8          1.7507    4.8126    8.6289 C.ar    1  <0>        -0.0398
      9 C9          0.2920    6.7157    8.7527 C.ar    1  <0>        -0.0398
     10 C10        -2.0268    0.7783    8.3920 C.ar    1  <0>        -0.0288
     11 C11         7.4156    8.1566    6.9217 C.ar    1  <0>         0.1202
     12 C12         2.4944    6.9620    7.8083 C.ar    1  <0>         0.0028
     13 C13         0.5185    5.3605    8.9683 C.ar    1  <0>         0.0348
     14 C14        -2.7596   -0.3549    8.0487 C.ar    1  <0>         0.0566
     15 C15        -2.6376    1.8316    9.0613 C.ar    1  <0>         0.0353
     16 C16         4.7814    7.6888    7.2132 C.ar    1  <0>         0.0834
     17 C17         3.4006    7.7261    7.0799 C.2     1  <0>         0.1030
     18 C18         5.7083    7.0080    7.9934 C.ar    1  <0>         0.1306
     19 C19         5.2413    8.6083    6.2880 C.ar    1  <0>         0.1552
     20 C20         4.2217   10.1102    4.6210 C.3     1  <0>         0.0423
     21 C21        -0.9324    3.4819    8.8104 C.2     1  <0>         0.3081
     22 C22        -2.1101   -1.5373    7.3246 C.3     1  <0>         0.4175
     23 N1          5.3176    6.1223    8.9054 N.pl3   1  <0>        -0.3425
     24 N2          7.0091    7.2688    7.8166 N.ar    1  <0>        -0.2204
     25 N3          6.5653    8.8203    6.1651 N.ar    1  <0>        -0.2183
     26 N4          3.1215    8.6216    6.1382 N.2     1  <0>        -0.1770
     27 N5         -0.5101    4.6127    9.3705 N.am    1  <0>        -0.2692
     28 N6         -1.9994    2.9505    9.4038 N.am    1  <0>        -0.2692
     29 N7          4.1663    9.1103    5.6953 N.pl3   1  <0>        -0.2034
     30 O1         -0.3860    2.9759    7.8335 O.2     1  <0>        -0.2522
     31 F1         -0.8593   -1.2565    6.9758 F       1  <0>        -0.1659
     32 F2         -2.1072   -2.5912    8.1349 F       1  <0>        -0.1659
     33 F3         -2.8116   -1.8219    6.2324 F       1  <0>        -0.1659
     34 H1          3.7214   11.7558    5.9321 H       1  <0>         0.0248
     35 H2          3.4151   12.0696    4.1903 H       1  <0>         0.0248
     36 H3          2.3127   10.9959    5.1171 H       1  <0>         0.0248
     37 H4          4.3753    8.6125    3.0685 H       1  <0>         0.0248
     38 H5          2.6980    9.1438    3.4297 H       1  <0>         0.0248
     39 H6          3.8004   10.2174    2.5030 H       1  <0>         0.0248
     40 H7         -5.7730    0.5536    9.3056 H       1  <0>         0.0618
     41 H8         -4.6765   -1.3117    8.1118 H       1  <0>         0.0623
     42 H9         -4.4620    2.5554    9.9112 H       1  <0>         0.0636
     43 H10         3.6889    5.1832    7.7915 H       1  <0>         0.0625
     44 H11         1.0870    8.5652    8.0102 H       1  <0>         0.0625
     45 H12         1.9456    3.7664    8.8127 H       1  <0>         0.0636
     46 H13        -0.6542    7.1521    9.0366 H       1  <0>         0.0636
     47 H14        -0.9792    0.8387    8.1369 H       1  <0>         0.0642
     48 H15         8.4736    8.3417    6.8091 H       1  <0>         0.1048
     49 H16         5.2574   10.4557    4.4864 H       1  <0>         0.0515
     50 H17         6.1192    5.7448    9.3690 H       1  <0>         0.1437
     51 H18         4.7266    6.5721    9.5750 H       1  <0>         0.1437
     52 H19        -1.0140    4.9336   10.1725 H       1  <0>         0.1564
     53 H20        -2.3619    3.4455   10.1934 H       1  <0>         0.1564
@<TRIPOS>BOND
     1     1    20    1
     2     2    20    1
     3     3     4   ar
     4     3     5   ar
     5     4    14   ar
     6     5    15   ar
     7     6     8   ar
     8     6    12   ar
     9     7     9   ar
    10     7    12   ar
    11     8    13   ar
    12     9    13   ar
    13    10    14   ar
    14    10    15   ar
    15    11    24   ar
    16    11    25   ar
    17    12    17    1
    18    13    27    1
    19    14    22    1
    20    15    28    1
    21    16    17    1
    22    16    18   ar
    23    16    19   ar
    24    17    26    2
    25    18    23    1
    26    18    24   ar
    27    19    25   ar
    28    19    29    1
    29    20    29    1
    30    21    27   am
    31    21    28   am
    32    21    30    2
    33    22    31    1
    34    22    32    1
    35    22    33    1
    36    26    29    1
    37     1    34    1
    38     1    35    1
    39     1    36    1
    40     2    37    1
    41     2    38    1
    42     2    39    1
    43     3    40    1
    44     4    41    1
    45     5    42    1
    46     6    43    1
    47     7    44    1
    48     8    45    1
    49     9    46    1
    50    10    47    1
    51    11    48    1
    52    20    49    1
    53    23    50    1
    54    23    51    1
    55    27    52    1
    56    28    53    1
@<TRIPOS>SUBSTRUCTURE
     1 <0>         1 TEMP              0 ****  ****    0 ROOT

