
##########                                Name:        PD5_601_3EL8
##########                    Molecular_Weight:             455.443
##########                DOCK_Rotatable_Bonds:                   7
##########                       Formal_Charge:        -2.98023e-07
##########                     HBond_Acceptors:                  11
##########                        HBond_Donors:                   4
##########                         Heavy_Atoms:                  33
##########                            HA_RMSDs:               1.235
##########                            HA_RMSDh:               1.235
##########                            HA_RMSDm:               1.139
##########                          Grid_Score:          -57.575508
##########                     Grid_vdw_energy:          -56.692810
##########                      Grid_es_energy:           -0.882700
##########           Internal_energy_repulsive:           27.218952

@<TRIPOS>MOLECULE
PD5_601_3EL8
 53 56 1 0 0
SMALL
USER_CHARGES


@<TRIPOS>ATOM
      1 C1          2.3541   11.2917    4.7745 C.3     1  <0>        -0.0448
      2 C2          4.1536   10.0918    3.4807 C.3     1  <0>        -0.0448
      3 C3         -4.6069    0.4921    9.2629 C.ar    1  <0>        -0.0595
      4 C4         -3.9057   -0.5387    8.6514 C.ar    1  <0>        -0.0500
      5 C5         -3.9552    1.6874    9.5467 C.ar    1  <0>        -0.0404
      6 C6          2.4683    5.9019    7.9759 C.ar    1  <0>        -0.0507
      7 C7          1.0403    7.7866    8.3836 C.ar    1  <0>        -0.0507
      8 C8          1.5229    5.0528    8.5449 C.ar    1  <0>        -0.0398
      9 C9          0.0952    6.9394    8.9543 C.ar    1  <0>        -0.0398
     10 C10        -1.9216    0.8250    8.6143 C.ar    1  <0>        -0.0288
     11 C11         7.0797    8.5943    6.8253 C.ar    1  <0>         0.1202
     12 C12         2.2254    7.2684    7.8787 C.ar    1  <0>         0.0028
     13 C13         0.3239    5.5692    9.0238 C.ar    1  <0>         0.0348
     14 C14        -2.5642   -0.3763    8.3261 C.ar    1  <0>         0.0566
     15 C15        -2.6160    1.8625    9.2241 C.ar    1  <0>         0.0353
     16 C16         4.4698    8.0690    7.2191 C.ar    1  <0>         0.0834
     17 C17         3.0835    8.0958    7.1612 C.2     1  <0>         0.1030
     18 C18         5.4439    7.3473    7.8985 C.ar    1  <0>         0.1306
     19 C19         4.8702    9.0590    6.3403 C.ar    1  <0>         0.1552
     20 C20         3.7476   10.6619    4.8420 C.3     1  <0>         0.0423
     21 C21        -1.0007    3.5951    8.9362 C.2     1  <0>         0.3081
     22 C22        -1.8209   -1.5423    7.6686 C.3     1  <0>         0.4175
     23 N1          5.1117    6.3928    8.7631 N.pl3   1  <0>        -0.3425
     24 N2          6.7307    7.6388    7.6735 N.ar    1  <0>        -0.2204
     25 N3          6.1835    9.2984    6.1642 N.ar    1  <0>        -0.2183
     26 N4          2.7454    9.0525    6.3027 N.2     1  <0>        -0.1770
     27 N5         -0.6799    4.7893    9.4279 N.am    1  <0>        -0.2692
     28 N6         -2.0666    3.0424    9.5116 N.am    1  <0>        -0.2692
     29 N7          3.7600    9.5868    5.8424 N.pl3   1  <0>        -0.2034
     30 O1         -0.3692    3.0535    8.0324 O.2     1  <0>        -0.2522
     31 F1         -0.5371   -1.5453    8.0105 F       1  <0>        -0.1659
     32 F2         -2.3761   -2.6846    8.0613 F       1  <0>        -0.1659
     33 F3         -1.9180   -1.4352    6.3475 F       1  <0>        -0.1659
     34 H1          2.0846   11.6938    5.7623 H       1  <0>         0.0248
     35 H2          2.3555   12.1063    4.0352 H       1  <0>         0.0248
     36 H3          1.6207   10.5278    4.4772 H       1  <0>         0.0248
     37 H4          5.1563    9.6455    3.5538 H       1  <0>         0.0248
     38 H5          3.4307    9.3209    3.1758 H       1  <0>         0.0248
     39 H6          4.1655   10.8994    2.7340 H       1  <0>         0.0248
     40 H7         -5.6493    0.3666    9.5160 H       1  <0>         0.0618
     41 H8         -4.4047   -1.4700    8.4276 H       1  <0>         0.0623
     42 H9         -4.4977    2.4899   10.0242 H       1  <0>         0.0636
     43 H10         3.3986    5.4962    7.6066 H       1  <0>         0.0625
     44 H11         0.8517    8.8489    8.3335 H       1  <0>         0.0625
     45 H12         1.7208    3.9934    8.6144 H       1  <0>         0.0636
     46 H13        -0.8237    7.3493    9.3466 H       1  <0>         0.0636
     47 H14        -0.8789    0.9508    8.3627 H       1  <0>         0.0642
     48 H15         8.1282    8.8022    6.6713 H       1  <0>         0.1048
     49 H16         4.4666   11.4443    5.1268 H       1  <0>         0.0515
     50 H17         5.9407    5.9946    9.1556 H       1  <0>         0.1437
     51 H18         4.5523    6.7848    9.4935 H       1  <0>         0.1437
     52 H19        -1.2476    5.1364   10.1743 H       1  <0>         0.1564
     53 H20        -2.5032    3.5708   10.2397 H       1  <0>         0.1564
@<TRIPOS>BOND
     1     1    20    1
     2     2    20    1
     3     3     4   ar
     4     3     5   ar
     5     4    14   ar
     6     5    15   ar
     7     6     8   ar
     8     6    12   ar
     9     7     9   ar
    10     7    12   ar
    11     8    13   ar
    12     9    13   ar
    13    10    14   ar
    14    10    15   ar
    15    11    24   ar
    16    11    25   ar
    17    12    17    1
    18    13    27    1
    19    14    22    1
    20    15    28    1
    21    16    17    1
    22    16    18   ar
    23    16    19   ar
    24    17    26    2
    25    18    23    1
    26    18    24   ar
    27    19    25   ar
    28    19    29    1
    29    20    29    1
    30    21    27   am
    31    21    28   am
    32    21    30    2
    33    22    31    1
    34    22    32    1
    35    22    33    1
    36    26    29    1
    37     1    34    1
    38     1    35    1
    39     1    36    1
    40     2    37    1
    41     2    38    1
    42     2    39    1
    43     3    40    1
    44     4    41    1
    45     5    42    1
    46     6    43    1
    47     7    44    1
    48     8    45    1
    49     9    46    1
    50    10    47    1
    51    11    48    1
    52    20    49    1
    53    23    50    1
    54    23    51    1
    55    27    52    1
    56    28    53    1
@<TRIPOS>SUBSTRUCTURE
     1 <0>         1 TEMP              0 ****  ****    0 ROOT

