
##########                                Name:        PD5_601_3EL8
##########                    Molecular_Weight:             455.443
##########                DOCK_Rotatable_Bonds:                   7
##########                       Formal_Charge:        -2.98023e-07
##########                     HBond_Acceptors:                  11
##########                        HBond_Donors:                   4
##########                         Heavy_Atoms:                  33
##########                            HA_RMSDs:               0.755
##########                            HA_RMSDh:               0.755
##########                            HA_RMSDm:               0.749
##########                          Grid_Score:          -59.781612
##########                     Grid_vdw_energy:          -58.011066
##########                      Grid_es_energy:           -1.770546
##########           Internal_energy_repulsive:           43.497459

@<TRIPOS>MOLECULE
PD5_601_3EL8
 53 56 1 0 0
SMALL
USER_CHARGES


@<TRIPOS>ATOM
      1 C1          3.5495   11.3631    4.9299 C.3     1  <0>        -0.0448
      2 C2          5.0907    9.9101    3.5640 C.3     1  <0>        -0.0448
      3 C3         -4.3798    0.6341    9.3135 C.ar    1  <0>        -0.0595
      4 C4         -3.6628   -0.4296    8.7820 C.ar    1  <0>        -0.0500
      5 C5         -3.7684    1.8773    9.4351 C.ar    1  <0>        -0.0404
      6 C6          2.8295    5.8085    7.8144 C.ar    1  <0>        -0.0507
      7 C7          1.5868    7.8216    8.2153 C.ar    1  <0>        -0.0507
      8 C8          1.7641    5.0475    8.2882 C.ar    1  <0>        -0.0398
      9 C9          0.5219    7.0623    8.6909 C.ar    1  <0>        -0.0398
     10 C10        -1.7433    0.9967    8.5012 C.ar    1  <0>        -0.0288
     11 C11         7.7659    8.0512    7.0963 C.ar    1  <0>         0.1202
     12 C12         2.7402    7.1959    7.7613 C.ar    1  <0>         0.0028
     13 C13         0.5984    5.6738    8.7153 C.ar    1  <0>         0.0348
     14 C14        -2.3455   -0.2525    8.3754 C.ar    1  <0>         0.0566
     15 C15        -2.4539    2.0672    9.0299 C.ar    1  <0>         0.0353
     16 C16         5.0950    7.7822    7.2879 C.ar    1  <0>         0.0834
     17 C17         3.7263    7.9502    7.1332 C.2     1  <0>         0.1030
     18 C18         5.9406    6.9490    8.0106 C.ar    1  <0>         0.1306
     19 C19         5.6548    8.7485    6.4720 C.ar    1  <0>         0.1552
     20 C20         4.8092   10.4937    4.9509 C.3     1  <0>         0.0423
     21 C21        -0.7454    3.7113    8.7613 C.2     1  <0>         0.3081
     22 C22        -1.5828   -1.4539    7.8106 C.3     1  <0>         0.4175
     23 N1          5.4531    6.0116    8.8184 N.pl3   1  <0>        -0.3425
     24 N2          7.2630    7.1148    7.8864 N.ar    1  <0>        -0.2204
     25 N3          6.9947    8.8585    6.3967 N.ar    1  <0>        -0.2183
     26 N4          3.5483    8.9575    6.2844 N.2     1  <0>        -0.1770
     27 N5         -0.5067    4.9938    9.0241 N.am    1  <0>        -0.2692
     28 N6         -1.9438    3.2916    9.1619 N.am    1  <0>        -0.2692
     29 N7          4.6417    9.3980    5.9144 N.pl3   1  <0>        -0.2034
     30 O1          0.0679    2.9823    8.1992 O.2     1  <0>        -0.2522
     31 F1         -0.4456   -1.0732    7.2388 F       1  <0>        -0.1659
     32 F2         -1.3081   -2.2959    8.8020 F       1  <0>        -0.1659
     33 F3         -2.3388   -2.0679    6.9064 F       1  <0>        -0.1659
     34 H1          3.3678   11.7706    5.9353 H       1  <0>         0.0248
     35 H2          3.6872   12.1906    4.2184 H       1  <0>         0.0248
     36 H3          2.6881   10.7528    4.6206 H       1  <0>         0.0248
     37 H4          5.9986    9.2904    3.6039 H       1  <0>         0.0248
     38 H5          4.2383    9.2914    3.2468 H       1  <0>         0.0248
     39 H6          5.2373   10.7292    2.8446 H       1  <0>         0.0248
     40 H7         -5.4033    0.4973    9.6297 H       1  <0>         0.0618
     41 H8         -4.1305   -1.3981    8.6842 H       1  <0>         0.0623
     42 H9         -4.3232    2.7057    9.8502 H       1  <0>         0.0636
     43 H10         3.7332    5.3174    7.4851 H       1  <0>         0.0625
     44 H11         1.5160    8.8992    8.1994 H       1  <0>         0.0625
     45 H12         1.8432    3.9710    8.3241 H       1  <0>         0.0636
     46 H13        -0.3717    7.5555    9.0440 H       1  <0>         0.0636
     47 H14        -0.7194    1.1341    8.1863 H       1  <0>         0.0642
     48 H15         8.8383    8.1560    7.0234 H       1  <0>         0.1048
     49 H16         5.6594   11.1250    5.2485 H       1  <0>         0.0515
     50 H17         6.2076    5.5220    9.2553 H       1  <0>         0.1437
     51 H18         4.8831    6.4396    9.5197 H       1  <0>         0.1437
     52 H19        -1.2274    5.4977    9.5001 H       1  <0>         0.1564
     53 H20        -2.5253    3.9696    9.6114 H       1  <0>         0.1564
@<TRIPOS>BOND
     1     1    20    1
     2     2    20    1
     3     3     4   ar
     4     3     5   ar
     5     4    14   ar
     6     5    15   ar
     7     6     8   ar
     8     6    12   ar
     9     7     9   ar
    10     7    12   ar
    11     8    13   ar
    12     9    13   ar
    13    10    14   ar
    14    10    15   ar
    15    11    24   ar
    16    11    25   ar
    17    12    17    1
    18    13    27    1
    19    14    22    1
    20    15    28    1
    21    16    17    1
    22    16    18   ar
    23    16    19   ar
    24    17    26    2
    25    18    23    1
    26    18    24   ar
    27    19    25   ar
    28    19    29    1
    29    20    29    1
    30    21    27   am
    31    21    28   am
    32    21    30    2
    33    22    31    1
    34    22    32    1
    35    22    33    1
    36    26    29    1
    37     1    34    1
    38     1    35    1
    39     1    36    1
    40     2    37    1
    41     2    38    1
    42     2    39    1
    43     3    40    1
    44     4    41    1
    45     5    42    1
    46     6    43    1
    47     7    44    1
    48     8    45    1
    49     9    46    1
    50    10    47    1
    51    11    48    1
    52    20    49    1
    53    23    50    1
    54    23    51    1
    55    27    52    1
    56    28    53    1
@<TRIPOS>SUBSTRUCTURE
     1 <0>         1 TEMP              0 ****  ****    0 ROOT

