
##########                                Name:        PD5_601_3EL8
##########                    Molecular_Weight:             455.443
##########                DOCK_Rotatable_Bonds:                   7
##########                       Formal_Charge:        -2.98023e-07
##########                     HBond_Acceptors:                  11
##########                        HBond_Donors:                   4
##########                         Heavy_Atoms:                  33
##########                            HA_RMSDs:               0.686
##########                            HA_RMSDh:               0.686
##########                            HA_RMSDm:               0.686
##########                          Grid_Score:          -60.170124
##########                     Grid_vdw_energy:          -58.198830
##########                      Grid_es_energy:           -1.971295
##########           Internal_energy_repulsive:           38.513817

@<TRIPOS>MOLECULE
PD5_601_3EL8
 53 56 1 0 0
SMALL
USER_CHARGES


@<TRIPOS>ATOM
      1 C1          4.1703   11.3988    5.3178 C.3     1  <0>        -0.0448
      2 C2          4.7528    9.6789    3.5701 C.3     1  <0>        -0.0448
      3 C3         -4.4793    0.7190    9.1695 C.ar    1  <0>        -0.0595
      4 C4         -3.7311   -0.4205    8.9054 C.ar    1  <0>        -0.0500
      5 C5         -3.8364    1.9468    9.2851 C.ar    1  <0>        -0.0404
      6 C6          2.9285    5.6193    7.8773 C.ar    1  <0>        -0.0507
      7 C7          1.7502    7.6737    8.2624 C.ar    1  <0>        -0.0507
      8 C8          1.8381    4.8958    8.3530 C.ar    1  <0>        -0.0398
      9 C9          0.6603    6.9520    8.7399 C.ar    1  <0>        -0.0398
     10 C10        -1.7183    0.9007    8.8755 C.ar    1  <0>        -0.0288
     11 C11         7.9364    7.7232    7.1876 C.ar    1  <0>         0.1202
     12 C12         2.8840    7.0085    7.8153 C.ar    1  <0>         0.0028
     13 C13         0.6921    5.5619    8.7731 C.ar    1  <0>         0.0348
     14 C14        -2.3517   -0.3338    8.7582 C.ar    1  <0>         0.0566
     15 C15        -2.4593    2.0464    9.1374 C.ar    1  <0>         0.0353
     16 C16         5.2577    7.5262    7.3564 C.ar    1  <0>         0.0834
     17 C17         3.8953    7.7268    7.1852 C.2     1  <0>         0.1030
     18 C18         6.0744    6.6835    8.1010 C.ar    1  <0>         0.1306
     19 C19         5.8501    8.4642    6.5307 C.ar    1  <0>         0.1552
     20 C20         5.0648   10.2054    4.9731 C.3     1  <0>         0.0423
     21 C21        -0.7041    3.6373    8.8510 C.2     1  <0>         0.3081
     22 C22        -1.5597   -1.6154    8.4851 C.3     1  <0>         0.4175
     23 N1          5.5549    5.7722    8.9188 N.pl3   1  <0>        -0.3425
     24 N2          7.4017    6.8131    7.9875 N.ar    1  <0>        -0.2204
     25 N3          7.1931    8.5385    6.4672 N.ar    1  <0>        -0.2183
     26 N4          3.7517    8.7242    6.3185 N.2     1  <0>        -0.1770
     27 N5         -0.4351    4.9197    9.0832 N.am    1  <0>        -0.2692
     28 N6         -1.9188    3.2601    9.2446 N.am    1  <0>        -0.2692
     29 N7          4.8597    9.1303    5.9524 N.pl3   1  <0>        -0.2034
     30 O1          0.0975    2.8723    8.3206 O.2     1  <0>        -0.2522
     31 F1         -0.2843   -1.3447    8.2297 F       1  <0>        -0.1659
     32 F2         -1.6293   -2.4023    9.5543 F       1  <0>        -0.1659
     33 F3         -2.0879   -2.2431    7.4396 F       1  <0>        -0.1659
     34 H1          4.4123   11.7592    6.3285 H       1  <0>         0.0248
     35 H2          4.3400   12.2062    4.5904 H       1  <0>         0.0248
     36 H3          3.1156   11.0886    5.2822 H       1  <0>         0.0248
     37 H4          5.4066    8.8234    3.3452 H       1  <0>         0.0248
     38 H5          3.7014    9.3587    3.5242 H       1  <0>         0.0248
     39 H6          4.9259   10.4763    2.8325 H       1  <0>         0.0248
     40 H7         -5.5511    0.6525    9.2841 H       1  <0>         0.0618
     41 H8         -4.2228   -1.3777    8.8141 H       1  <0>         0.0623
     42 H9         -4.4159    2.8343    9.4925 H       1  <0>         0.0636
     43 H10         3.8168    5.0973    7.5534 H       1  <0>         0.0625
     44 H11         1.7141    8.7529    8.2396 H       1  <0>         0.0625
     45 H12         1.8824    3.8176    8.3957 H       1  <0>         0.0636
     46 H13        -0.2178    7.4758    9.0875 H       1  <0>         0.0636
     47 H14        -0.6464    0.9679    8.7623 H       1  <0>         0.0642
     48 H15         9.0118    7.7992    7.1239 H       1  <0>         0.1048
     49 H16         6.1124   10.5399    5.0008 H       1  <0>         0.0515
     50 H17         6.2923    5.2707    9.3712 H       1  <0>         0.1437
     51 H18         4.9894    6.2262    9.6074 H       1  <0>         0.1437
     52 H19        -1.1488    5.4550    9.5348 H       1  <0>         0.1564
     53 H20        -2.4884    3.9650    9.6671 H       1  <0>         0.1564
@<TRIPOS>BOND
     1     1    20    1
     2     2    20    1
     3     3     4   ar
     4     3     5   ar
     5     4    14   ar
     6     5    15   ar
     7     6     8   ar
     8     6    12   ar
     9     7     9   ar
    10     7    12   ar
    11     8    13   ar
    12     9    13   ar
    13    10    14   ar
    14    10    15   ar
    15    11    24   ar
    16    11    25   ar
    17    12    17    1
    18    13    27    1
    19    14    22    1
    20    15    28    1
    21    16    17    1
    22    16    18   ar
    23    16    19   ar
    24    17    26    2
    25    18    23    1
    26    18    24   ar
    27    19    25   ar
    28    19    29    1
    29    20    29    1
    30    21    27   am
    31    21    28   am
    32    21    30    2
    33    22    31    1
    34    22    32    1
    35    22    33    1
    36    26    29    1
    37     1    34    1
    38     1    35    1
    39     1    36    1
    40     2    37    1
    41     2    38    1
    42     2    39    1
    43     3    40    1
    44     4    41    1
    45     5    42    1
    46     6    43    1
    47     7    44    1
    48     8    45    1
    49     9    46    1
    50    10    47    1
    51    11    48    1
    52    20    49    1
    53    23    50    1
    54    23    51    1
    55    27    52    1
    56    28    53    1
@<TRIPOS>SUBSTRUCTURE
     1 <0>         1 TEMP              0 ****  ****    0 ROOT

