
##########                                Name:        PD5_601_3EL8
##########                    Molecular_Weight:             455.443
##########                DOCK_Rotatable_Bonds:                   7
##########                       Formal_Charge:        -2.98023e-07
##########                     HBond_Acceptors:                  11
##########                        HBond_Donors:                   4
##########                         Heavy_Atoms:                  33
##########                            HA_RMSDs:               1.630
##########                            HA_RMSDh:               1.630
##########                            HA_RMSDm:               1.447
##########                          Grid_Score:          -44.320942
##########                     Grid_vdw_energy:          -43.354549
##########                      Grid_es_energy:           -0.966393
##########           Internal_energy_repulsive:           35.605289

@<TRIPOS>MOLECULE
PD5_601_3EL8
 53 56 1 0 0
SMALL
USER_CHARGES


@<TRIPOS>ATOM
      1 C1          2.6443   12.2156    4.3982 C.3     1  <0>        -0.0448
      2 C2          3.6965   10.6777    2.7013 C.3     1  <0>        -0.0448
      3 C3         -3.9822    0.8446    9.3637 C.ar    1  <0>        -0.0595
      4 C4         -3.2434   -0.1713    8.7722 C.ar    1  <0>        -0.0500
      5 C5         -3.4274    2.1146    9.4794 C.ar    1  <0>        -0.0404
      6 C6          2.6689    6.5250    7.2614 C.ar    1  <0>        -0.0507
      7 C7          1.2902    8.4200    7.7767 C.ar    1  <0>        -0.0507
      8 C8          1.7471    5.6787    7.8719 C.ar    1  <0>        -0.0398
      9 C9          0.3688    7.5755    8.3888 C.ar    1  <0>        -0.0398
     10 C10        -1.4147    1.3552    8.4206 C.ar    1  <0>        -0.0288
     11 C11         7.2415    9.2231    5.9348 C.ar    1  <0>         0.1202
     12 C12         2.4379    7.8955    7.1974 C.ar    1  <0>         0.0028
     13 C13         0.5840    6.2020    8.4259 C.ar    1  <0>         0.0348
     14 C14        -1.9603    0.0798    8.3002 C.ar    1  <0>         0.0566
     15 C15        -2.1477    2.3783    9.0092 C.ar    1  <0>         0.0353
     16 C16         4.6513    8.6969    6.4414 C.ar    1  <0>         0.0834
     17 C17         3.2639    8.7233    6.4435 C.2     1  <0>         0.1030
     18 C18         5.6543    7.9754    7.0777 C.ar    1  <0>         0.1306
     19 C19         5.0129    9.6871    5.5462 C.ar    1  <0>         0.1552
     20 C20         3.8260   11.2900    4.0982 C.3     1  <0>         0.0423
     21 C21        -0.6145    4.1515    8.5634 C.2     1  <0>         0.3081
     22 C22        -1.1708   -1.0708    7.6700 C.3     1  <0>         0.4175
     23 N1          5.3601    7.0207    7.9558 N.pl3   1  <0>        -0.3425
     24 N2          6.9300    8.2673    6.7971 N.ar    1  <0>        -0.2204
     25 N3          6.3173    9.9270    5.3133 N.ar    1  <0>        -0.2183
     26 N4          2.8885    9.6800    5.6007 N.2     1  <0>        -0.1770
     27 N5         -0.4047    5.4279    8.8759 N.am    1  <0>        -0.2692
     28 N6         -1.6925    3.6242    9.1402 N.am    1  <0>        -0.2692
     29 N7          3.8820   10.2147    5.0970 N.pl3   1  <0>        -0.2034
     30 O1          0.1210    3.5190    7.8099 O.2     1  <0>        -0.2522
     31 F1          0.0936   -0.7231    7.4564 F       1  <0>        -0.1659
     32 F2         -1.1994   -2.1153    8.4919 F       1  <0>        -0.1659
     33 F3         -1.7307   -1.4046    6.5119 F       1  <0>        -0.1659
     34 H1          2.7591   12.6430    5.4053 H       1  <0>         0.0248
     35 H2          2.6172   13.0274    3.6565 H       1  <0>         0.0248
     36 H3          1.7073   11.6416    4.3484 H       1  <0>         0.0248
     37 H4          4.5552   10.0177    2.5087 H       1  <0>         0.0248
     38 H5          2.7656   10.0947    2.6415 H       1  <0>         0.0248
     39 H6          3.6755   11.4806    1.9498 H       1  <0>         0.0248
     40 H7         -4.9792    0.6503    9.7309 H       1  <0>         0.0618
     41 H8         -3.6671   -1.1602    8.6786 H       1  <0>         0.0623
     42 H9         -3.9992    2.9060    9.9410 H       1  <0>         0.0636
     43 H10         3.5714    6.1139    6.8338 H       1  <0>         0.0625
     44 H11         1.1123    9.4850    7.7523 H       1  <0>         0.0625
     45 H12         1.9354    4.6162    7.9150 H       1  <0>         0.0636
     46 H13        -0.5210    7.9904    8.8388 H       1  <0>         0.0636
     47 H14        -0.4174    1.5500    8.0549 H       1  <0>         0.0642
     48 H15         8.2823    9.4314    5.7356 H       1  <0>         0.1048
     49 H16         4.7500   11.8855    4.1395 H       1  <0>         0.0515
     50 H17         6.2055    6.6227    8.3119 H       1  <0>         0.1437
     51 H18         4.8328    7.4124    8.7098 H       1  <0>         0.1437
     52 H19        -1.0525    5.8485    9.5111 H       1  <0>         0.1564
     53 H20        -2.2185    4.2295    9.7375 H       1  <0>         0.1564
@<TRIPOS>BOND
     1     1    20    1
     2     2    20    1
     3     3     4   ar
     4     3     5   ar
     5     4    14   ar
     6     5    15   ar
     7     6     8   ar
     8     6    12   ar
     9     7     9   ar
    10     7    12   ar
    11     8    13   ar
    12     9    13   ar
    13    10    14   ar
    14    10    15   ar
    15    11    24   ar
    16    11    25   ar
    17    12    17    1
    18    13    27    1
    19    14    22    1
    20    15    28    1
    21    16    17    1
    22    16    18   ar
    23    16    19   ar
    24    17    26    2
    25    18    23    1
    26    18    24   ar
    27    19    25   ar
    28    19    29    1
    29    20    29    1
    30    21    27   am
    31    21    28   am
    32    21    30    2
    33    22    31    1
    34    22    32    1
    35    22    33    1
    36    26    29    1
    37     1    34    1
    38     1    35    1
    39     1    36    1
    40     2    37    1
    41     2    38    1
    42     2    39    1
    43     3    40    1
    44     4    41    1
    45     5    42    1
    46     6    43    1
    47     7    44    1
    48     8    45    1
    49     9    46    1
    50    10    47    1
    51    11    48    1
    52    20    49    1
    53    23    50    1
    54    23    51    1
    55    27    52    1
    56    28    53    1
@<TRIPOS>SUBSTRUCTURE
     1 <0>         1 TEMP              0 ****  ****    0 ROOT

