
##########                                Name:        PD5_601_3EL8
##########                    Molecular_Weight:             455.443
##########                DOCK_Rotatable_Bonds:                   7
##########                       Formal_Charge:        -2.98023e-07
##########                     HBond_Acceptors:                  11
##########                        HBond_Donors:                   4
##########                         Heavy_Atoms:                  33
##########                            HA_RMSDs:               0.514
##########                            HA_RMSDh:               0.514
##########                            HA_RMSDm:               0.514
##########                          Grid_Score:          -59.220806
##########                     Grid_vdw_energy:          -56.978207
##########                      Grid_es_energy:           -2.242599
##########           Internal_energy_repulsive:           44.632862

@<TRIPOS>MOLECULE
PD5_601_3EL8
 53 56 1 0 0
SMALL
USER_CHARGES


@<TRIPOS>ATOM
      1 C1          4.0011   11.3047    5.4918 C.3     1  <0>        -0.0448
      2 C2          5.1410    9.7106    3.9070 C.3     1  <0>        -0.0448
      3 C3         -4.5814    0.6723    9.4162 C.ar    1  <0>        -0.0595
      4 C4         -3.9331   -0.3854    8.7926 C.ar    1  <0>        -0.0500
      5 C5         -3.9267    1.8920    9.5494 C.ar    1  <0>        -0.0404
      6 C6          2.8258    5.5921    8.0188 C.ar    1  <0>        -0.0507
      7 C7          1.6764    7.6518    8.4595 C.ar    1  <0>        -0.0507
      8 C8          1.7136    4.8714    8.4456 C.ar    1  <0>        -0.0398
      9 C9          0.5646    6.9326    8.8880 C.ar    1  <0>        -0.0398
     10 C10        -1.9949    1.0002    8.4443 C.ar    1  <0>        -0.0288
     11 C11         7.8826    7.6208    7.4967 C.ar    1  <0>         0.1202
     12 C12         2.8070    6.9833    8.0092 C.ar    1  <0>         0.0028
     13 C13         0.5714    5.5419    8.8688 C.ar    1  <0>         0.0348
     14 C14        -2.6409   -0.2256    8.3061 C.ar    1  <0>         0.0566
     15 C15        -2.6369    2.0646    9.0650 C.ar    1  <0>         0.0353
     16 C16         5.1980    7.4713    7.6121 C.ar    1  <0>         0.0834
     17 C17         3.8430    7.7063    7.4265 C.2     1  <0>         0.1030
     18 C18         5.9848    6.5823    8.3348 C.ar    1  <0>         0.1306
     19 C19         5.8231    8.4303    6.8361 C.ar    1  <0>         0.1552
     20 C20         5.0996   10.2496    5.3391 C.3     1  <0>         0.0423
     21 C21        -0.8526    3.6362    8.8640 C.2     1  <0>         0.3081
     22 C22        -1.9532   -1.4206    7.6403 C.3     1  <0>         0.4175
     23 N1          5.4333    5.6489    9.1052 N.pl3   1  <0>        -0.3425
     24 N2          7.3162    6.6896    8.2491 N.ar    1  <0>        -0.2204
     25 N3          7.1682    8.4799    6.7984 N.ar    1  <0>        -0.2183
     26 N4          3.7342    8.7412    6.5995 N.2     1  <0>        -0.1770
     27 N5         -0.5729    4.9092    9.1323 N.am    1  <0>        -0.2692
     28 N6         -2.0831    3.2678    9.2145 N.am    1  <0>        -0.2692
     29 N7          4.8563    9.1395    6.2694 N.pl3   1  <0>        -0.2034
     30 O1         -0.0467    2.8717    8.3395 O.2     1  <0>        -0.2522
     31 F1         -0.8920   -1.0336    6.9410 F       1  <0>        -0.1659
     32 F2         -1.5631   -2.2741    8.5820 F       1  <0>        -0.1659
     33 F3         -2.8130   -2.0239    6.8261 F       1  <0>        -0.1659
     34 H1          3.9906   11.6767    6.5269 H       1  <0>         0.0248
     35 H2          4.1975   12.1404    4.8040 H       1  <0>         0.0248
     36 H3          3.0257   10.8553    5.2539 H       1  <0>         0.0248
     37 H4          5.9363    8.9555    3.8218 H       1  <0>         0.0248
     38 H5          4.1722    9.2519    3.6599 H       1  <0>         0.0248
     39 H6          5.3440   10.5370    3.2101 H       1  <0>         0.0248
     40 H7         -5.5854    0.5489    9.7946 H       1  <0>         0.0618
     41 H8         -4.4347   -1.3358    8.6852 H       1  <0>         0.0623
     42 H9         -4.4280    2.7156   10.0359 H       1  <0>         0.0636
     43 H10         3.7110    5.0667    7.6924 H       1  <0>         0.0625
     44 H11         1.6597    8.7315    8.4773 H       1  <0>         0.0625
     45 H12         1.7381    3.7917    8.4479 H       1  <0>         0.0636
     46 H13        -0.3109    7.4589    9.2385 H       1  <0>         0.0636
     47 H14        -0.9905    1.1240    8.0673 H       1  <0>         0.0642
     48 H15         8.9602    7.6776    7.4543 H       1  <0>         0.1048
     49 H16         6.0663   10.7222    5.5675 H       1  <0>         0.0515
     50 H17         6.1526    5.1144    9.5487 H       1  <0>         0.1437
     51 H18         4.8647    6.0855    9.8024 H       1  <0>         0.1437
     52 H19        -1.2919    5.4446    9.5755 H       1  <0>         0.1564
     53 H20        -2.6549    3.9713    9.6365 H       1  <0>         0.1564
@<TRIPOS>BOND
     1     1    20    1
     2     2    20    1
     3     3     4   ar
     4     3     5   ar
     5     4    14   ar
     6     5    15   ar
     7     6     8   ar
     8     6    12   ar
     9     7     9   ar
    10     7    12   ar
    11     8    13   ar
    12     9    13   ar
    13    10    14   ar
    14    10    15   ar
    15    11    24   ar
    16    11    25   ar
    17    12    17    1
    18    13    27    1
    19    14    22    1
    20    15    28    1
    21    16    17    1
    22    16    18   ar
    23    16    19   ar
    24    17    26    2
    25    18    23    1
    26    18    24   ar
    27    19    25   ar
    28    19    29    1
    29    20    29    1
    30    21    27   am
    31    21    28   am
    32    21    30    2
    33    22    31    1
    34    22    32    1
    35    22    33    1
    36    26    29    1
    37     1    34    1
    38     1    35    1
    39     1    36    1
    40     2    37    1
    41     2    38    1
    42     2    39    1
    43     3    40    1
    44     4    41    1
    45     5    42    1
    46     6    43    1
    47     7    44    1
    48     8    45    1
    49     9    46    1
    50    10    47    1
    51    11    48    1
    52    20    49    1
    53    23    50    1
    54    23    51    1
    55    27    52    1
    56    28    53    1
@<TRIPOS>SUBSTRUCTURE
     1 <0>         1 TEMP              0 ****  ****    0 ROOT

