
##########                                Name:        PD5_601_3EL8
##########                    Molecular_Weight:             455.443
##########                DOCK_Rotatable_Bonds:                   7
##########                       Formal_Charge:        -2.98023e-07
##########                     HBond_Acceptors:                  11
##########                        HBond_Donors:                   4
##########                         Heavy_Atoms:                  33
##########                            HA_RMSDs:               0.951
##########                            HA_RMSDh:               0.951
##########                            HA_RMSDm:               0.933
##########                          Grid_Score:          -48.062542
##########                     Grid_vdw_energy:          -46.129101
##########                      Grid_es_energy:           -1.933442
##########           Internal_energy_repulsive:           47.550373

@<TRIPOS>MOLECULE
PD5_601_3EL8
 53 56 1 0 0
SMALL
USER_CHARGES


@<TRIPOS>ATOM
      1 C1          3.6537   11.4196    4.4414 C.3     1  <0>        -0.0448
      2 C2          5.5858   10.1354    3.4567 C.3     1  <0>        -0.0448
      3 C3         -4.0157    0.7662    9.6450 C.ar    1  <0>        -0.0595
      4 C4         -3.3193   -0.2824    9.0590 C.ar    1  <0>        -0.0500
      5 C5         -3.4779    2.0481    9.6091 C.ar    1  <0>        -0.0404
      6 C6          2.9417    6.1160    7.6804 C.ar    1  <0>        -0.0507
      7 C7          1.6417    8.1195    7.9117 C.ar    1  <0>        -0.0507
      8 C8          1.8658    5.3567    8.1325 C.ar    1  <0>        -0.0398
      9 C9          0.5661    7.3620    8.3654 C.ar    1  <0>        -0.0398
     10 C10        -1.5661    1.2359    8.4117 C.ar    1  <0>        -0.0288
     11 C11         7.8728    8.3691    7.0621 C.ar    1  <0>         0.1202
     12 C12         2.8300    7.4970    7.5534 C.ar    1  <0>         0.0028
     13 C13         0.6668    5.9782    8.4633 C.ar    1  <0>         0.0348
     14 C14        -2.0951   -0.0518    8.4423 C.ar    1  <0>         0.0566
     15 C15        -2.2572    2.2914    8.9936 C.ar    1  <0>         0.0353
     16 C16         5.1981    8.0865    7.1564 C.ar    1  <0>         0.0834
     17 C17         3.8355    8.2405    6.9435 C.2     1  <0>         0.1030
     18 C18         6.0195    7.2799    7.9349 C.ar    1  <0>         0.1306
     19 C19         5.7837    9.0337    6.3361 C.ar    1  <0>         0.1552
     20 C20         4.9883   10.7297    4.7345 C.3     1  <0>         0.0423
     21 C21        -0.5942    3.9712    8.6670 C.2     1  <0>         0.3081
     22 C22        -1.3494   -1.2370    7.8229 C.3     1  <0>         0.4175
     23 N1          5.5062    6.3619    8.7489 N.pl3   1  <0>        -0.3425
     24 N2          7.3447    7.4515    7.8580 N.ar    1  <0>        -0.2204
     25 N3          7.1249    9.1510    6.3104 N.ar    1  <0>        -0.2183
     26 N4          3.6851    9.2223    6.0603 N.2     1  <0>        -0.1770
     27 N5         -0.4412    5.2909    8.7444 N.am    1  <0>        -0.2692
     28 N6         -1.8163    3.5493    8.9848 N.am    1  <0>        -0.2692
     29 N7          4.7896    9.6601    5.7212 N.pl3   1  <0>        -0.2034
     30 O1          0.3119    3.2125    8.3316 O.2     1  <0>        -0.2522
     31 F1         -0.2789   -0.8298    7.1495 F       1  <0>        -0.1659
     32 F2         -0.9632   -2.0591    8.7936 F       1  <0>        -0.1659
     33 F3         -2.1633   -1.8830    6.9946 F       1  <0>        -0.1659
     34 H1          3.2443   11.8381    5.3727 H       1  <0>         0.0248
     35 H2          3.8117   12.2295    3.7141 H       1  <0>         0.0248
     36 H3          2.9457   10.6870    4.0265 H       1  <0>         0.0248
     37 H4          6.5424    9.6460    3.6918 H       1  <0>         0.0248
     38 H5          4.8891    9.3953    3.0360 H       1  <0>         0.0248
     39 H6          5.7551   10.9379    2.7237 H       1  <0>         0.0248
     40 H7         -4.9669    0.5878   10.1244 H       1  <0>         0.0618
     41 H8         -3.7302   -1.2809    9.0826 H       1  <0>         0.0623
     42 H9         -4.0166    2.8651   10.0660 H       1  <0>         0.0636
     43 H10         3.8713    5.6287    7.4261 H       1  <0>         0.0625
     44 H11         1.5520    9.1933    7.8381 H       1  <0>         0.0625
     45 H12         1.9626    4.2851    8.2263 H       1  <0>         0.0636
     46 H13        -0.3547    7.8528    8.6439 H       1  <0>         0.0636
     47 H14        -0.6144    1.4148    7.9335 H       1  <0>         0.0642
     48 H15         8.9466    8.4794    7.0285 H       1  <0>         0.1048
     49 H16         5.6848   11.4812    5.1347 H       1  <0>         0.0515
     50 H17         6.2459    5.8901    9.2287 H       1  <0>         0.1437
     51 H18         4.9064    6.8052    9.4151 H       1  <0>         0.1437
     52 H19        -1.2357    5.8196    9.0431 H       1  <0>         0.1564
     53 H20        -2.4763    4.2538    9.2457 H       1  <0>         0.1564
@<TRIPOS>BOND
     1     1    20    1
     2     2    20    1
     3     3     4   ar
     4     3     5   ar
     5     4    14   ar
     6     5    15   ar
     7     6     8   ar
     8     6    12   ar
     9     7     9   ar
    10     7    12   ar
    11     8    13   ar
    12     9    13   ar
    13    10    14   ar
    14    10    15   ar
    15    11    24   ar
    16    11    25   ar
    17    12    17    1
    18    13    27    1
    19    14    22    1
    20    15    28    1
    21    16    17    1
    22    16    18   ar
    23    16    19   ar
    24    17    26    2
    25    18    23    1
    26    18    24   ar
    27    19    25   ar
    28    19    29    1
    29    20    29    1
    30    21    27   am
    31    21    28   am
    32    21    30    2
    33    22    31    1
    34    22    32    1
    35    22    33    1
    36    26    29    1
    37     1    34    1
    38     1    35    1
    39     1    36    1
    40     2    37    1
    41     2    38    1
    42     2    39    1
    43     3    40    1
    44     4    41    1
    45     5    42    1
    46     6    43    1
    47     7    44    1
    48     8    45    1
    49     9    46    1
    50    10    47    1
    51    11    48    1
    52    20    49    1
    53    23    50    1
    54    23    51    1
    55    27    52    1
    56    28    53    1
@<TRIPOS>SUBSTRUCTURE
     1 <0>         1 TEMP              0 ****  ****    0 ROOT

