
##########                                Name:        PD5_601_3EL8
##########                    Molecular_Weight:             455.443
##########                DOCK_Rotatable_Bonds:                   7
##########                       Formal_Charge:        -2.98023e-07
##########                     HBond_Acceptors:                  11
##########                        HBond_Donors:                   4
##########                         Heavy_Atoms:                  33
##########                            HA_RMSDs:               0.746
##########                            HA_RMSDh:               0.746
##########                            HA_RMSDm:               0.744
##########                          Grid_Score:          -53.323009
##########                     Grid_vdw_energy:          -51.520790
##########                      Grid_es_energy:           -1.802219
##########           Internal_energy_repulsive:           37.215134

@<TRIPOS>MOLECULE
PD5_601_3EL8
 53 56 1 0 0
SMALL
USER_CHARGES


@<TRIPOS>ATOM
      1 C1          3.3790   11.3307    5.1192 C.3     1  <0>        -0.0448
      2 C2          4.9235    9.9336    3.6998 C.3     1  <0>        -0.0448
      3 C3         -4.7214    0.8138    9.1880 C.ar    1  <0>        -0.0595
      4 C4         -4.0024   -0.3102    8.8037 C.ar    1  <0>        -0.0500
      5 C5         -4.0556    2.0209    9.3717 C.ar    1  <0>        -0.0404
      6 C6          2.6707    5.7398    7.9102 C.ar    1  <0>        -0.0507
      7 C7          1.4904    7.7695    8.4049 C.ar    1  <0>        -0.0507
      8 C8          1.6076    4.9913    8.4083 C.ar    1  <0>        -0.0398
      9 C9          0.4278    7.0227    8.9046 C.ar    1  <0>        -0.0398
     10 C10        -1.9727    0.9852    8.7910 C.ar    1  <0>        -0.0288
     11 C11         7.6224    7.8513    6.9999 C.ar    1  <0>         0.1202
     12 C12         2.6109    7.1298    7.8920 C.ar    1  <0>         0.0028
     13 C13         0.4738    5.6326    8.8948 C.ar    1  <0>         0.0348
     14 C14        -2.6292   -0.2286    8.6048 C.ar    1  <0>         0.0566
     15 C15        -2.6846    2.1155    9.1734 C.ar    1  <0>         0.0353
     16 C16         4.9571    7.6596    7.3197 C.ar    1  <0>         0.0834
     17 C17         3.5887    7.8769    7.2429 C.2     1  <0>         0.1030
     18 C18         5.8097    6.7718    7.9650 C.ar    1  <0>         0.1306
     19 C19         5.5070    8.6395    6.5133 C.ar    1  <0>         0.1552
     20 C20         4.6447   10.4700    5.1061 C.3     1  <0>         0.0423
     21 C21        -0.9368    3.7169    8.9004 C.2     1  <0>         0.3081
     22 C22        -1.8689   -1.4940    8.1984 C.3     1  <0>         0.4175
     23 N1          5.3324    5.8187    8.7605 N.pl3   1  <0>        -0.3425
     24 N2          7.1289    6.9004    7.7787 N.ar    1  <0>        -0.2204
     25 N3          6.8443    8.7099    6.3728 N.ar    1  <0>        -0.2183
     26 N4          3.4020    8.9224    6.4436 N.2     1  <0>        -0.1770
     27 N5         -0.6337    4.9698    9.2312 N.am    1  <0>        -0.2692
     28 N6         -2.1215    3.3104    9.3519 N.am    1  <0>        -0.2692
     29 N7          4.4894    9.3425    6.0344 N.pl3   1  <0>        -0.2034
     30 O1         -0.1896    3.0020    8.2376 O.2     1  <0>        -0.2522
     31 F1         -0.5768   -1.3903    8.4894 F       1  <0>        -0.1659
     32 F2         -2.3781   -2.5327    8.8535 F       1  <0>        -0.1659
     33 F3         -2.0052   -1.6867    6.8906 F       1  <0>        -0.1659
     34 H1          3.1993   11.7042    6.1381 H       1  <0>         0.0248
     35 H2          3.5074   12.1818    4.4342 H       1  <0>         0.0248
     36 H3          2.5203   10.7247    4.7943 H       1  <0>         0.0248
     37 H4          5.8359    9.3194    3.7154 H       1  <0>         0.0248
     38 H5          4.0739    9.3195    3.3667 H       1  <0>         0.0248
     39 H6          5.0610   10.7766    3.0067 H       1  <0>         0.0248
     40 H7         -5.7884    0.7513    9.3428 H       1  <0>         0.0618
     41 H8         -4.5121   -1.2512    8.6589 H       1  <0>         0.0623
     42 H9         -4.6123    2.8961    9.6726 H       1  <0>         0.0636
     43 H10         3.5497    5.2370    7.5348 H       1  <0>         0.0625
     44 H11         1.4434    8.8485    8.4161 H       1  <0>         0.0625
     45 H12         1.6635    3.9128    8.4167 H       1  <0>         0.0636
     46 H13        -0.4400    7.5268    9.3035 H       1  <0>         0.0636
     47 H14        -0.9056    1.0483    8.6376 H       1  <0>         0.0642
     48 H15         8.6926    7.9249    6.8755 H       1  <0>         0.1048
     49 H16         5.4920   11.0974    5.4202 H       1  <0>         0.0515
     50 H17         6.0912    5.2885    9.1386 H       1  <0>         0.1437
     51 H18         4.8134    6.2362    9.5064 H       1  <0>         0.1437
     52 H19        -1.3027    5.4632    9.7871 H       1  <0>         0.1564
     53 H20        -2.6468    3.9747    9.8836 H       1  <0>         0.1564
@<TRIPOS>BOND
     1     1    20    1
     2     2    20    1
     3     3     4   ar
     4     3     5   ar
     5     4    14   ar
     6     5    15   ar
     7     6     8   ar
     8     6    12   ar
     9     7     9   ar
    10     7    12   ar
    11     8    13   ar
    12     9    13   ar
    13    10    14   ar
    14    10    15   ar
    15    11    24   ar
    16    11    25   ar
    17    12    17    1
    18    13    27    1
    19    14    22    1
    20    15    28    1
    21    16    17    1
    22    16    18   ar
    23    16    19   ar
    24    17    26    2
    25    18    23    1
    26    18    24   ar
    27    19    25   ar
    28    19    29    1
    29    20    29    1
    30    21    27   am
    31    21    28   am
    32    21    30    2
    33    22    31    1
    34    22    32    1
    35    22    33    1
    36    26    29    1
    37     1    34    1
    38     1    35    1
    39     1    36    1
    40     2    37    1
    41     2    38    1
    42     2    39    1
    43     3    40    1
    44     4    41    1
    45     5    42    1
    46     6    43    1
    47     7    44    1
    48     8    45    1
    49     9    46    1
    50    10    47    1
    51    11    48    1
    52    20    49    1
    53    23    50    1
    54    23    51    1
    55    27    52    1
    56    28    53    1
@<TRIPOS>SUBSTRUCTURE
     1 <0>         1 TEMP              0 ****  ****    0 ROOT

