
##########                                Name:        PD5_601_3EL8
##########                    Molecular_Weight:             455.443
##########                DOCK_Rotatable_Bonds:                   7
##########                       Formal_Charge:        -2.98023e-07
##########                     HBond_Acceptors:                  11
##########                        HBond_Donors:                   4
##########                         Heavy_Atoms:                  33
##########                            HA_RMSDs:               0.579
##########                            HA_RMSDh:               0.579
##########                            HA_RMSDm:               0.570
##########                          Grid_Score:          -57.212391
##########                     Grid_vdw_energy:          -55.264141
##########                      Grid_es_energy:           -1.948250
##########           Internal_energy_repulsive:           45.344151

@<TRIPOS>MOLECULE
PD5_601_3EL8
 53 56 1 0 0
SMALL
USER_CHARGES


@<TRIPOS>ATOM
      1 C1          4.0881   11.4074    5.6728 C.3     1  <0>        -0.0448
      2 C2          5.1686    9.8683    3.9948 C.3     1  <0>        -0.0448
      3 C3         -4.3244    0.5247    9.3361 C.ar    1  <0>        -0.0595
      4 C4         -3.6352   -0.5388    8.7688 C.ar    1  <0>        -0.0500
      5 C5         -3.6898    1.7545    9.4737 C.ar    1  <0>        -0.0404
      6 C6          2.9933    5.5738    7.9333 C.ar    1  <0>        -0.0507
      7 C7          1.8680    7.5945    8.5722 C.ar    1  <0>        -0.0507
      8 C8          1.8959    4.8231    8.3464 C.ar    1  <0>        -0.0398
      9 C9          0.7711    6.8452    8.9871 C.ar    1  <0>        -0.0398
     10 C10        -1.6969    0.8611    8.4845 C.ar    1  <0>        -0.0288
     11 C11         8.0347    7.7406    7.5200 C.ar    1  <0>         0.1202
     12 C12         2.9786    6.9617    8.0298 C.ar    1  <0>         0.0028
     13 C13         0.7727    5.4600    8.8624 C.ar    1  <0>         0.0348
     14 C14        -2.3225   -0.3748    8.3424 C.ar    1  <0>         0.0566
     15 C15        -2.3796    1.9314    9.0491 C.ar    1  <0>         0.0353
     16 C16         5.3552    7.5205    7.6394 C.ar    1  <0>         0.0834
     17 C17         3.9941    7.7264    7.4644 C.2     1  <0>         0.1030
     18 C18         6.1667    6.6318    8.3345 C.ar    1  <0>         0.1306
     19 C19         5.9532    8.5162    6.8885 C.ar    1  <0>         0.1552
     20 C20         5.1788   10.3577    5.4451 C.3     1  <0>         0.0423
     21 C21        -0.6200    3.5312    8.8544 C.2     1  <0>         0.3081
     22 C22        -1.5905   -1.5761    7.7380 C.3     1  <0>         0.4175
     23 N1          5.6415    5.6637    9.0802 N.pl3   1  <0>        -0.3425
     24 N2          7.4946    6.7748    8.2479 N.ar    1  <0>        -0.2204
     25 N3          7.2965    8.6006    6.8482 N.ar    1  <0>        -0.2183
     26 N4          3.8563    8.7809    6.6671 N.2     1  <0>        -0.1770
     27 N5         -0.3628    4.8095    9.1207 N.am    1  <0>        -0.2692
     28 N6         -1.8465    3.1439    9.1984 N.am    1  <0>        -0.2692
     29 N7          4.9668    9.2164    6.3448 N.pl3   1  <0>        -0.2034
     30 O1          0.2015    2.7785    8.3373 O.2     1  <0>        -0.2522
     31 F1         -0.5093   -1.1907    7.0689 F       1  <0>        -0.1659
     32 F2         -1.2235   -2.3960    8.7180 F       1  <0>        -0.1659
     33 F3         -2.4083   -2.2166    6.9092 F       1  <0>        -0.1659
     34 H1          4.1149   11.7435    6.7199 H       1  <0>         0.0248
     35 H2          4.2614   12.2661    5.0077 H       1  <0>         0.0248
     36 H3          3.1042   10.9668    5.4544 H       1  <0>         0.0248
     37 H4          5.9592    9.1163    3.8555 H       1  <0>         0.0248
     38 H5          4.1909    9.4187    3.7666 H       1  <0>         0.0248
     39 H6          5.3481   10.7181    3.3200 H       1  <0>         0.0248
     40 H7         -5.3444    0.3981    9.6677 H       1  <0>         0.0618
     41 H8         -4.1210   -1.4970    8.6584 H       1  <0>         0.0623
     42 H9         -4.2230    2.5828    9.9165 H       1  <0>         0.0636
     43 H10         3.8638    5.0743    7.5345 H       1  <0>         0.0625
     44 H11         1.8555    8.6698    8.6723 H       1  <0>         0.0625
     45 H12         1.9170    3.7463    8.2660 H       1  <0>         0.0636
     46 H13        -0.0888    7.3437    9.4096 H       1  <0>         0.0636
     47 H14        -0.6765    0.9882    8.1543 H       1  <0>         0.0642
     48 H15         9.1104    7.8256    7.4761 H       1  <0>         0.1048
     49 H16         6.1537   10.8218    5.6552 H       1  <0>         0.0515
     50 H17         6.3757    5.1353    9.5064 H       1  <0>         0.1437
     51 H18         5.0648    6.0663    9.7910 H       1  <0>         0.1437
     52 H19        -1.0931    5.3343    9.5578 H       1  <0>         0.1564
     53 H20        -2.4323    3.8392    9.6147 H       1  <0>         0.1564
@<TRIPOS>BOND
     1     1    20    1
     2     2    20    1
     3     3     4   ar
     4     3     5   ar
     5     4    14   ar
     6     5    15   ar
     7     6     8   ar
     8     6    12   ar
     9     7     9   ar
    10     7    12   ar
    11     8    13   ar
    12     9    13   ar
    13    10    14   ar
    14    10    15   ar
    15    11    24   ar
    16    11    25   ar
    17    12    17    1
    18    13    27    1
    19    14    22    1
    20    15    28    1
    21    16    17    1
    22    16    18   ar
    23    16    19   ar
    24    17    26    2
    25    18    23    1
    26    18    24   ar
    27    19    25   ar
    28    19    29    1
    29    20    29    1
    30    21    27   am
    31    21    28   am
    32    21    30    2
    33    22    31    1
    34    22    32    1
    35    22    33    1
    36    26    29    1
    37     1    34    1
    38     1    35    1
    39     1    36    1
    40     2    37    1
    41     2    38    1
    42     2    39    1
    43     3    40    1
    44     4    41    1
    45     5    42    1
    46     6    43    1
    47     7    44    1
    48     8    45    1
    49     9    46    1
    50    10    47    1
    51    11    48    1
    52    20    49    1
    53    23    50    1
    54    23    51    1
    55    27    52    1
    56    28    53    1
@<TRIPOS>SUBSTRUCTURE
     1 <0>         1 TEMP              0 ****  ****    0 ROOT

