Z3831472882
 OpenBabel06032418162D

 23 25  0  0  1  0  0  0  0  0999 V2000
   11.1119  -10.6991    0.0000 C   0  0  0  0  0  0  0  0  0  0  0  0
   12.2266  -11.7029    0.0000 C   0  0  0  0  0  0  0  0  0  0  0  0
   13.6939  -11.3909    0.0000 N   0  0  0  0  0  0  0  0  0  0  0  0
   14.4439  -12.6900    0.0000 N   0  0  0  0  0  0  0  0  0  0  0  0
   15.9358  -12.8467    0.0000 C   0  0  0  0  0  0  0  0  0  0  0  0
   16.8174  -11.6333    0.0000 C   0  0  0  0  0  0  0  0  0  0  0  0
   16.2074  -10.2629    0.0000 C   0  0  0  0  0  0  0  0  0  0  0  0
   17.0891   -9.0494    0.0000 C   0  0  0  0  0  0  0  0  0  0  0  0
   18.5807   -9.2062    0.0000 C   0  0  0  0  0  0  0  0  0  0  0  0
   19.4625   -7.9927    0.0000 C   0  0  0  0  0  0  0  0  0  0  0  0
   19.1909  -10.5765    0.0000 C   0  0  0  0  0  0  0  0  0  0  0  0
   18.3092  -11.7900    0.0000 C   0  0  0  0  0  0  0  0  0  0  0  0
   13.4401  -13.8047    0.0000 C   0  0  0  0  0  0  0  0  0  0  0  0
   13.7521  -15.2720    0.0000 C   0  0  0  0  0  0  0  0  0  0  0  0
   12.0699  -13.1946    0.0000 C   0  0  0  0  0  0  0  0  0  0  0  0
   10.7708  -13.9446    0.0000 C   0  0  0  0  0  0  0  0  0  0  0  0
   10.7708  -15.4446    0.0000 N   0  0  0  0  0  0  0  0  0  0  0  0
    9.4719  -16.1946    0.0000 C   0  0  0  0  0  0  0  0  0  0  0  0
    9.4719  -17.6946    0.0000 C   0  0  2  0  0  0  0  0  0  0  0  0
   10.2217  -18.9937    0.0000 C   0  0  0  0  0  0  0  0  0  0  0  0
    8.7219  -18.9937    0.0000 C   0  0  1  0  0  0  0  0  0  0  0  0
    7.4228  -19.7437    0.0000 C   0  0  0  0  0  0  0  0  0  0  0  0
    7.4228  -21.2437    0.0000 N   0  0  0  0  0  0  0  0  0  0  0  0
  1  2  1  0  0  0  0
  2  3  2  0  0  0  0
  2 15  1  0  0  0  0
  3  4  1  0  0  0  0
  4  5  1  0  0  0  0
  4 13  1  0  0  0  0
  5  6  1  0  0  0  0
  6  7  2  0  0  0  0
  6 12  1  0  0  0  0
  7  8  1  0  0  0  0
  8  9  2  0  0  0  0
  9 10  1  0  0  0  0
  9 11  1  0  0  0  0
 11 12  2  0  0  0  0
 13 14  1  0  0  0  0
 13 15  2  0  0  0  0
 15 16  1  0  0  0  0
 16 17  1  0  0  0  0
 17 18  1  0  0  0  0
 19 18  1  6  0  0  0
 19 20  1  0  0  0  0
 19 21  1  0  0  0  0
 21 20  1  0  0  0  0
 21 22  1  1  0  0  0
 22 23  1  0  0  0  0
M  END
$$$$
