Z4315497494
 OpenBabel06032418192D

 26 27  0  0  0  0  0  0  0  0999 V2000
   30.0188  -12.2672    0.0000 C   0  0  0  0  0  0  0  0  0  0  0  0
   30.0188  -13.7672    0.0000 O   0  0  0  0  0  0  0  0  0  0  0  0
   31.3177  -14.5172    0.0000 C   0  0  0  0  0  0  0  0  0  0  0  0
   32.6167  -13.7672    0.0000 C   0  0  0  0  0  0  0  0  0  0  0  0
   33.9158  -14.5172    0.0000 C   0  0  0  0  0  0  0  0  0  0  0  0
   35.2147  -13.7672    0.0000 C   0  0  0  0  0  0  0  0  0  0  0  0
   36.5138  -14.5172    0.0000 N   0  0  0  0  0  0  0  0  0  0  0  0
   37.8129  -13.7672    0.0000 C   0  0  3  0  0  0  0  0  0  0  0  0
   39.1120  -14.5172    0.0000 C   0  0  0  0  0  0  0  0  0  0  0  0
   40.4111  -13.7672    0.0000 C   0  0  0  0  0  0  0  0  0  0  0  0
   41.7100  -14.5172    0.0000 C   0  0  0  0  0  0  0  0  0  0  0  0
   43.0091  -13.7672    0.0000 C   0  0  0  0  0  0  0  0  0  0  0  0
   44.3082  -14.5172    0.0000 C   0  0  0  0  0  0  0  0  0  0  0  0
   44.3082  -16.0172    0.0000 C   0  0  0  0  0  0  0  0  0  0  0  0
   43.0091  -16.7672    0.0000 C   0  0  0  0  0  0  0  0  0  0  0  0
   41.7100  -16.0172    0.0000 C   0  0  0  0  0  0  0  0  0  0  0  0
   37.8129  -12.2672    0.0000 C   0  0  3  0  0  0  0  0  0  0  0  0
   39.1120  -11.5172    0.0000 C   0  0  0  0  0  0  0  0  0  0  0  0
   36.5138  -11.5172    0.0000 N   0  0  0  0  0  0  0  0  0  0  0  0
   33.9158  -16.0172    0.0000 C   0  0  0  0  0  0  0  0  0  0  0  0
   32.6167  -16.7672    0.0000 C   0  0  0  0  0  0  0  0  0  0  0  0
   31.3177  -16.0172    0.0000 C   0  0  0  0  0  0  0  0  0  0  0  0
   30.0188  -16.7672    0.0000 S   0  0  0  0  0  0  0  0  0  0  0  0
   28.7197  -17.5172    0.0000 C   0  0  0  0  0  0  0  0  0  0  0  0
   29.2688  -15.4681    0.0000 O   0  0  0  0  0  0  0  0  0  0  0  0
   30.7688  -18.0662    0.0000 O   0  0  0  0  0  0  0  0  0  0  0  0
  1  2  1  0  0  0  0
  2  3  1  0  0  0  0
  3  4  2  0  0  0  0
  3 22  1  0  0  0  0
  4  5  1  0  0  0  0
  5  6  1  0  0  0  0
  5 20  2  0  0  0  0
  6  7  1  0  0  0  0
  7  8  1  0  0  0  0
  8  9  1  0  0  0  0
  8 17  1  0  0  0  0
  9 10  1  0  0  0  0
 10 11  1  0  0  0  0
 11 12  2  0  0  0  0
 11 16  1  0  0  0  0
 12 13  1  0  0  0  0
 13 14  2  0  0  0  0
 14 15  1  0  0  0  0
 15 16  2  0  0  0  0
 17 18  1  0  0  0  0
 17 19  1  0  0  0  0
 20 21  1  0  0  0  0
 21 22  2  0  0  0  0
 22 23  1  0  0  0  0
 23 24  1  0  0  0  0
 23 25  2  0  0  0  0
 23 26  2  0  0  0  0
M  END
$$$$
