Z4415557415
 OpenBabel06032418202D

 24 25  0  0  0  0  0  0  0  0999 V2000
    6.8479   -8.5000    0.0000 C   0  0  0  0  0  0  0  0  0  0  0  0
    8.1470   -7.7500    0.0000 O   0  0  0  0  0  0  0  0  0  0  0  0
    9.4459   -8.5000    0.0000 C   0  0  0  0  0  0  0  0  0  0  0  0
   10.7450   -7.7500    0.0000 C   0  0  0  0  0  0  0  0  0  0  0  0
   12.0439   -8.5000    0.0000 C   0  0  0  0  0  0  0  0  0  0  0  0
   12.0439  -10.0000    0.0000 C   0  0  0  0  0  0  0  0  0  0  0  0
   13.3428  -10.7500    0.0000 C   0  0  0  0  0  0  0  0  0  0  0  0
   14.6419  -10.0000    0.0000 N   0  0  0  0  0  0  0  0  0  0  0  0
   15.9408  -10.7500    0.0000 C   0  0  3  0  0  0  0  0  0  0  0  0
   15.9408  -12.2500    0.0000 C   0  0  0  0  0  0  0  0  0  0  0  0
   17.2399  -10.0000    0.0000 C   0  0  0  0  0  0  0  0  0  0  0  0
   18.5390  -10.7500    0.0000 C   0  0  0  0  0  0  0  0  0  0  0  0
   19.8381  -10.0000    0.0000 C   0  0  0  0  0  0  0  0  0  0  0  0
   21.1372  -10.7500    0.0000 C   0  0  0  0  0  0  0  0  0  0  0  0
   21.1372  -12.2500    0.0000 C   0  0  0  0  0  0  0  0  0  0  0  0
   19.8381  -13.0000    0.0000 C   0  0  0  0  0  0  0  0  0  0  0  0
   18.5390  -12.2500    0.0000 C   0  0  0  0  0  0  0  0  0  0  0  0
   22.4362  -13.0000    0.0000 N   0  0  0  0  0  0  0  0  0  0  0  0
   23.7353  -12.2500    0.0000 C   0  0  0  0  0  0  0  0  0  0  0  0
   22.4362  -14.5000    0.0000 C   0  0  0  0  0  0  0  0  0  0  0  0
   10.7450  -10.7500    0.0000 C   0  0  0  0  0  0  0  0  0  0  0  0
   10.7450  -12.2500    0.0000 O   0  0  0  0  0  0  0  0  0  0  0  0
    9.4459  -10.0000    0.0000 C   0  0  0  0  0  0  0  0  0  0  0  0
    8.1470  -10.7500    0.0000 F   0  0  0  0  0  0  0  0  0  0  0  0
  1  2  1  0  0  0  0
  2  3  1  0  0  0  0
  3  4  2  0  0  0  0
  3 23  1  0  0  0  0
  4  5  1  0  0  0  0
  5  6  2  0  0  0  0
  6  7  1  0  0  0  0
  6 21  1  0  0  0  0
  7  8  1  0  0  0  0
  8  9  1  0  0  0  0
  9 10  1  0  0  0  0
  9 11  1  0  0  0  0
 11 12  1  0  0  0  0
 12 13  2  0  0  0  0
 12 17  1  0  0  0  0
 13 14  1  0  0  0  0
 14 15  2  0  0  0  0
 15 16  1  0  0  0  0
 15 18  1  0  0  0  0
 16 17  2  0  0  0  0
 18 19  1  0  0  0  0
 18 20  1  0  0  0  0
 21 22  1  0  0  0  0
 21 23  2  0  0  0  0
 23 24  1  0  0  0  0
M  END
$$$$
