Z8718594704
 OpenBabel06032418192D

 25 26  0  0  0  0  0  0  0  0999 V2000
   12.1813  -15.5765    0.0000 C   0  0  0  0  0  0  0  0  0  0  0  0
   10.7547  -16.0402    0.0000 C   0  0  0  0  0  0  0  0  0  0  0  0
   10.4427  -17.5075    0.0000 C   0  0  0  0  0  0  0  0  0  0  0  0
    9.6400  -15.0365    0.0000 C   0  0  0  0  0  0  0  0  0  0  0  0
    8.1727  -15.3482    0.0000 N   0  0  0  0  0  0  0  0  0  0  0  0
    7.4227  -14.0493    0.0000 N   0  0  0  0  0  0  0  0  0  0  0  0
    8.4264  -12.9345    0.0000 C   0  0  0  0  0  0  0  0  0  0  0  0
    9.7967  -13.5447    0.0000 C   0  0  0  0  0  0  0  0  0  0  0  0
   11.0958  -12.7947    0.0000 C   0  0  0  0  0  0  0  0  0  0  0  0
   12.3947  -13.5447    0.0000 N   0  0  0  0  0  0  0  0  0  0  0  0
   13.6936  -12.7947    0.0000 C   0  0  0  0  0  0  0  0  0  0  0  0
   14.9927  -13.5447    0.0000 C   0  0  0  0  0  0  0  0  0  0  0  0
   16.2916  -12.7947    0.0000 C   0  0  0  0  0  0  0  0  0  0  0  0
   16.2916  -11.2947    0.0000 C   0  0  0  0  0  0  0  0  0  0  0  0
   14.9927  -10.5447    0.0000 F   0  0  0  0  0  0  0  0  0  0  0  0
   17.5907  -10.5447    0.0000 C   0  0  0  0  0  0  0  0  0  0  0  0
   18.8898  -11.2947    0.0000 C   0  0  0  0  0  0  0  0  0  0  0  0
   20.1889  -10.5447    0.0000 O   0  0  0  0  0  0  0  0  0  0  0  0
   18.8898  -12.7947    0.0000 C   0  0  0  0  0  0  0  0  0  0  0  0
   17.5907  -13.5447    0.0000 C   0  0  0  0  0  0  0  0  0  0  0  0
   17.5907  -15.0447    0.0000 F   0  0  0  0  0  0  0  0  0  0  0  0
    5.9309  -13.8925    0.0000 C   0  0  0  0  0  0  0  0  0  0  0  0
    4.4391  -13.7356    0.0000 C   0  0  0  0  0  0  0  0  0  0  0  0
    6.0876  -12.4007    0.0000 C   0  0  0  0  0  0  0  0  0  0  0  0
    5.7742  -15.3844    0.0000 C   0  0  0  0  0  0  0  0  0  0  0  0
  1  2  1  0  0  0  0
  2  3  1  0  0  0  0
  2  4  1  0  0  0  0
  4  5  2  0  0  0  0
  4  8  1  0  0  0  0
  5  6  1  0  0  0  0
  6  7  1  0  0  0  0
  6 22  1  0  0  0  0
  7  8  2  0  0  0  0
  8  9  1  0  0  0  0
  9 10  1  0  0  0  0
 10 11  1  0  0  0  0
 11 12  1  0  0  0  0
 12 13  1  0  0  0  0
 13 14  2  0  0  0  0
 13 20  1  0  0  0  0
 14 15  1  0  0  0  0
 14 16  1  0  0  0  0
 16 17  2  0  0  0  0
 17 18  1  0  0  0  0
 17 19  1  0  0  0  0
 19 20  2  0  0  0  0
 20 21  1  0  0  0  0
 22 23  1  0  0  0  0
 22 24  1  0  0  0  0
 22 25  1  0  0  0  0
M  END
$$$$
