Z8718594710
 OpenBabel06032418172D

 25 27  0  0  0  0  0  0  0  0999 V2000
   11.4767  -13.7605    0.0000 C   0  0  0  0  0  0  0  0  0  0  0  0
   11.4767  -12.2605    0.0000 C   0  0  3  0  0  0  0  0  0  0  0  0
   10.1776  -11.5105    0.0000 N   0  0  0  0  0  0  0  0  0  0  0  0
    8.8785  -12.2605    0.0000 C   0  0  0  0  0  0  0  0  0  0  0  0
    7.5795  -11.5105    0.0000 C   0  0  0  0  0  0  0  0  0  0  0  0
    6.2092  -12.1207    0.0000 C   0  0  0  0  0  0  0  0  0  0  0  0
    5.2055  -11.0059    0.0000 C   0  0  0  0  0  0  0  0  0  0  0  0
    3.7057  -11.0059    0.0000 C   0  0  0  0  0  0  0  0  0  0  0  0
    2.9557  -12.3050    0.0000 C   0  0  0  0  0  0  0  0  0  0  0  0
    2.9557   -9.7068    0.0000 C   0  0  0  0  0  0  0  0  0  0  0  0
    3.7057   -8.4079    0.0000 C   0  0  0  0  0  0  0  0  0  0  0  0
    2.9557   -7.1090    0.0000 C   0  0  0  0  0  0  0  0  0  0  0  0
    5.2055   -8.4079    0.0000 C   0  0  0  0  0  0  0  0  0  0  0  0
    5.9555   -9.7068    0.0000 C   0  0  0  0  0  0  0  0  0  0  0  0
    7.4228  -10.0186    0.0000 N   0  0  0  0  0  0  0  0  0  0  0  0
   12.7758  -11.5105    0.0000 C   0  0  3  0  0  0  0  0  0  0  0  0
   12.7758  -10.0105    0.0000 O   0  0  0  0  0  0  0  0  0  0  0  0
   14.0749  -12.2605    0.0000 C   0  0  0  0  0  0  0  0  0  0  0  0
   15.3738  -11.5105    0.0000 C   0  0  0  0  0  0  0  0  0  0  0  0
   16.6729  -12.2605    0.0000 C   0  0  0  0  0  0  0  0  0  0  0  0
   16.6729  -13.7605    0.0000 C   0  0  0  0  0  0  0  0  0  0  0  0
   17.9720  -14.5105    0.0000 C   0  0  0  0  0  0  0  0  0  0  0  0
   15.3738  -14.5105    0.0000 C   0  0  0  0  0  0  0  0  0  0  0  0
   15.3738  -16.0105    0.0000 F   0  0  0  0  0  0  0  0  0  0  0  0
   14.0749  -13.7605    0.0000 C   0  0  0  0  0  0  0  0  0  0  0  0
  1  2  1  0  0  0  0
  2  3  1  0  0  0  0
  2 16  1  0  0  0  0
  3  4  1  0  0  0  0
  4  5  1  0  0  0  0
  5  6  2  0  0  0  0
  5 15  1  0  0  0  0
  6  7  1  0  0  0  0
  7  8  2  0  0  0  0
  7 14  1  0  0  0  0
  8  9  1  0  0  0  0
  8 10  1  0  0  0  0
 10 11  2  0  0  0  0
 11 12  1  0  0  0  0
 11 13  1  0  0  0  0
 13 14  2  0  0  0  0
 14 15  1  0  0  0  0
 16 17  1  0  0  0  0
 16 18  1  0  0  0  0
 18 19  2  0  0  0  0
 18 25  1  0  0  0  0
 19 20  1  0  0  0  0
 20 21  2  0  0  0  0
 21 22  1  0  0  0  0
 21 23  1  0  0  0  0
 23 24  1  0  0  0  0
 23 25  2  0  0  0  0
M  END
$$$$
