Z8718594701
 OpenBabel06032418202D

 23 25  0  0  1  0  0  0  0  0999 V2000
   44.1662  -15.3171    0.0000 C   0  0  0  0  0  0  0  0  0  0  0  0
   42.8671  -16.0672    0.0000 C   0  0  0  0  0  0  0  0  0  0  0  0
   42.8671  -17.5672    0.0000 C   0  0  0  0  0  0  0  0  0  0  0  0
   41.5680  -18.3172    0.0000 C   0  0  0  0  0  0  0  0  0  0  0  0
   41.5680  -19.8172    0.0000 C   0  0  0  0  0  0  0  0  0  0  0  0
   40.2690  -20.5672    0.0000 N   0  0  0  0  0  0  0  0  0  0  0  0
   40.2690  -22.0672    0.0000 C   0  0  1  0  0  0  0  0  0  0  0  0
   41.4825  -22.9489    0.0000 C   0  0  0  0  0  0  0  0  0  0  0  0
   41.0190  -24.3754    0.0000 C   0  0  0  0  0  0  0  0  0  0  0  0
   39.5190  -24.3754    0.0000 C   0  0  0  0  0  0  0  0  0  0  0  0
   39.0554  -22.9489    0.0000 C   0  0  2  0  0  0  0  0  0  0  0  0
   37.6288  -22.4852    0.0000 C   0  0  0  0  0  0  0  0  0  0  0  0
   36.5141  -23.4891    0.0000 N   0  0  0  0  0  0  0  0  0  0  0  0
   40.2690  -17.5672    0.0000 C   0  0  0  0  0  0  0  0  0  0  0  0
   40.2690  -16.0672    0.0000 C   0  0  0  0  0  0  0  0  0  0  0  0
   41.5680  -15.3171    0.0000 C   0  0  0  0  0  0  0  0  0  0  0  0
   41.5680  -13.8173    0.0000 O   0  0  0  0  0  0  0  0  0  0  0  0
   42.8671  -13.0673    0.0000 C   0  0  0  0  0  0  0  0  0  0  0  0
   42.8671  -11.5673    0.0000 C   0  0  0  0  0  0  0  0  0  0  0  0
   44.1662  -10.8173    0.0000 C   0  0  0  0  0  0  0  0  0  0  0  0
   45.4651  -11.5673    0.0000 C   0  0  0  0  0  0  0  0  0  0  0  0
   45.4651  -13.0673    0.0000 N   0  0  0  0  0  0  0  0  0  0  0  0
   44.1662  -13.8173    0.0000 C   0  0  0  0  0  0  0  0  0  0  0  0
  1  2  1  0  0  0  0
  2  3  2  0  0  0  0
  2 16  1  0  0  0  0
  3  4  1  0  0  0  0
  4  5  1  0  0  0  0
  4 14  2  0  0  0  0
  5  6  1  0  0  0  0
  7  6  1  1  0  0  0
  7  8  1  0  0  0  0
  7 11  1  0  0  0  0
  8  9  1  0  0  0  0
  9 10  1  0  0  0  0
 11 10  1  0  0  0  0
 11 12  1  6  0  0  0
 12 13  1  0  0  0  0
 14 15  1  0  0  0  0
 15 16  2  0  0  0  0
 16 17  1  0  0  0  0
 17 18  1  0  0  0  0
 18 19  2  0  0  0  0
 18 23  1  0  0  0  0
 19 20  1  0  0  0  0
 20 21  2  0  0  0  0
 21 22  1  0  0  0  0
 22 23  2  0  0  0  0
M  END
$$$$
