Z8739902234
 OpenBabel06032418152D

 25 26  0  0  0  0  0  0  0  0999 V2000
    4.9273  -11.0530    0.0000 C   0  0  0  0  0  0  0  0  0  0  0  0
    6.4192  -10.8963    0.0000 C   0  0  0  0  0  0  0  0  0  0  0  0
    7.1692   -9.5974    0.0000 C   0  0  0  0  0  0  0  0  0  0  0  0
    6.5592   -8.2270    0.0000 C   0  0  0  0  0  0  0  0  0  0  0  0
    8.6363   -9.9092    0.0000 C   0  0  0  0  0  0  0  0  0  0  0  0
    8.7930  -11.4010    0.0000 C   0  0  0  0  0  0  0  0  0  0  0  0
   10.0921  -12.1510    0.0000 C   0  0  0  0  0  0  0  0  0  0  0  0
   11.3910  -11.4010    0.0000 N   0  0  0  0  0  0  0  0  0  0  0  0
   12.6901  -12.1510    0.0000 C   0  0  0  0  0  0  0  0  0  0  0  0
   13.9893  -11.4010    0.0000 C   0  0  3  0  0  0  0  0  0  0  0  0
   13.9893   -9.9010    0.0000 O   0  0  0  0  0  0  0  0  0  0  0  0
   15.2884  -12.1510    0.0000 C   0  0  0  0  0  0  0  0  0  0  0  0
   16.5875  -11.4010    0.0000 O   0  0  0  0  0  0  0  0  0  0  0  0
   17.8864  -12.1510    0.0000 C   0  0  0  0  0  0  0  0  0  0  0  0
   19.1855  -11.4010    0.0000 C   0  0  0  0  0  0  0  0  0  0  0  0
   20.4846  -12.1510    0.0000 C   0  0  0  0  0  0  0  0  0  0  0  0
   20.4846  -13.6511    0.0000 C   0  0  0  0  0  0  0  0  0  0  0  0
   19.1855  -14.4011    0.0000 C   0  0  0  0  0  0  0  0  0  0  0  0
   17.8864  -13.6511    0.0000 C   0  0  0  0  0  0  0  0  0  0  0  0
   16.5875  -14.4011    0.0000 C   0  0  0  0  0  0  0  0  0  0  0  0
   21.7835  -14.4011    0.0000 C   0  0  0  0  0  0  0  0  0  0  0  0
   23.0826  -15.1511    0.0000 C   0  0  0  0  0  0  0  0  0  0  0  0
   21.0335  -15.7000    0.0000 C   0  0  0  0  0  0  0  0  0  0  0  0
   22.5335  -13.1020    0.0000 C   0  0  0  0  0  0  0  0  0  0  0  0
    7.4228  -12.0110    0.0000 S   0  0  0  0  0  0  0  0  0  0  0  0
  1  2  1  0  0  0  0
  2  3  2  0  0  0  0
  2 25  1  0  0  0  0
  3  4  1  0  0  0  0
  3  5  1  0  0  0  0
  5  6  2  0  0  0  0
  6  7  1  0  0  0  0
  6 25  1  0  0  0  0
  7  8  1  0  0  0  0
  8  9  1  0  0  0  0
  9 10  1  0  0  0  0
 10 11  1  0  0  0  0
 10 12  1  0  0  0  0
 12 13  1  0  0  0  0
 13 14  1  0  0  0  0
 14 15  2  0  0  0  0
 14 19  1  0  0  0  0
 15 16  1  0  0  0  0
 16 17  2  0  0  0  0
 17 18  1  0  0  0  0
 17 21  1  0  0  0  0
 18 19  2  0  0  0  0
 19 20  1  0  0  0  0
 21 22  1  0  0  0  0
 21 23  1  0  0  0  0
 21 24  1  0  0  0  0
M  END
$$$$
