Z8739902231
 OpenBabel06032418162D

 23 24  0  0  1  0  0  0  0  0999 V2000
    4.8248  -13.1423    0.0000 C   0  0  0  0  0  0  0  0  0  0  0  0
    6.1237  -12.3923    0.0000 C   0  0  0  0  0  0  0  0  0  0  0  0
    6.1237  -10.8923    0.0000 C   0  0  0  0  0  0  0  0  0  0  0  0
    7.4228  -13.1423    0.0000 C   0  0  1  0  0  0  0  0  0  0  0  0
    7.4228  -14.6423    0.0000 N   0  0  0  0  0  0  0  0  0  0  0  0
    8.7219  -12.3923    0.0000 C   0  0  0  0  0  0  0  0  0  0  0  0
   10.0210  -13.1423    0.0000 N   0  0  0  0  0  0  0  0  0  0  0  0
   11.3199  -12.3923    0.0000 C   0  0  0  0  0  0  0  0  0  0  0  0
   12.6190  -13.1423    0.0000 C   0  0  0  0  0  0  0  0  0  0  0  0
   13.9894  -12.5321    0.0000 C   0  0  0  0  0  0  0  0  0  0  0  0
   14.3012  -11.0650    0.0000 C   0  0  0  0  0  0  0  0  0  0  0  0
   14.9930  -13.6468    0.0000 N   0  0  0  0  0  0  0  0  0  0  0  0
   16.4849  -13.4901    0.0000 C   0  0  0  0  0  0  0  0  0  0  0  0
   17.3665  -14.7036    0.0000 C   0  0  0  0  0  0  0  0  0  0  0  0
   18.8583  -14.5468    0.0000 C   0  0  0  0  0  0  0  0  0  0  0  0
   19.7400  -15.7603    0.0000 C   0  0  0  0  0  0  0  0  0  0  0  0
   19.1300  -17.1307    0.0000 C   0  0  0  0  0  0  0  0  0  0  0  0
   20.0116  -18.3441    0.0000 C   0  0  0  0  0  0  0  0  0  0  0  0
   17.6381  -17.2874    0.0000 C   0  0  0  0  0  0  0  0  0  0  0  0
   16.7563  -16.0739    0.0000 C   0  0  0  0  0  0  0  0  0  0  0  0
   14.2430  -14.9459    0.0000 N   0  0  0  0  0  0  0  0  0  0  0  0
   12.7757  -14.6339    0.0000 C   0  0  0  0  0  0  0  0  0  0  0  0
   11.6612  -15.6377    0.0000 C   0  0  0  0  0  0  0  0  0  0  0  0
  1  2  1  0  0  0  0
  2  3  1  0  0  0  0
  4  2  1  0  0  0  0
  4  5  1  6  0  0  0
  4  6  1  0  0  0  0
  6  7  1  0  0  0  0
  7  8  1  0  0  0  0
  8  9  1  0  0  0  0
  9 10  2  0  0  0  0
  9 22  1  0  0  0  0
 10 11  1  0  0  0  0
 10 12  1  0  0  0  0
 12 13  1  0  0  0  0
 12 21  1  0  0  0  0
 13 14  1  0  0  0  0
 14 15  2  0  0  0  0
 14 20  1  0  0  0  0
 15 16  1  0  0  0  0
 16 17  2  0  0  0  0
 17 18  1  0  0  0  0
 17 19  1  0  0  0  0
 19 20  2  0  0  0  0
 21 22  2  0  0  0  0
 22 23  1  0  0  0  0
M  END
$$$$
