Z8739905023
 OpenBabel06032418182D

 25 26  0  0  0  0  0  0  0  0999 V2000
   15.2167  -18.1686    0.0000 C   0  0  0  0  0  0  0  0  0  0  0  0
   15.2167  -16.6686    0.0000 C   0  0  3  0  0  0  0  0  0  0  0  0
   13.9178  -15.9186    0.0000 C   0  0  0  0  0  0  0  0  0  0  0  0
   12.6187  -16.6686    0.0000 C   0  0  0  0  0  0  0  0  0  0  0  0
   11.3197  -15.9186    0.0000 C   0  0  0  0  0  0  0  0  0  0  0  0
   10.0208  -16.6686    0.0000 C   0  0  0  0  0  0  0  0  0  0  0  0
    8.7217  -15.9186    0.0000 C   0  0  0  0  0  0  0  0  0  0  0  0
    8.7217  -14.4185    0.0000 C   0  0  0  0  0  0  0  0  0  0  0  0
    7.4228  -13.6685    0.0000 O   0  0  0  0  0  0  0  0  0  0  0  0
    7.4228  -12.1685    0.0000 C   0  0  0  0  0  0  0  0  0  0  0  0
    6.1237  -11.4185    0.0000 C   0  0  0  0  0  0  0  0  0  0  0  0
    6.1237   -9.9185    0.0000 C   0  0  0  0  0  0  0  0  0  0  0  0
    4.8246   -9.1685    0.0000 C   0  0  0  0  0  0  0  0  0  0  0  0
    7.4228   -9.1685    0.0000 C   0  0  0  0  0  0  0  0  0  0  0  0
   10.0208  -13.6685    0.0000 C   0  0  0  0  0  0  0  0  0  0  0  0
   11.3197  -14.4185    0.0000 C   0  0  0  0  0  0  0  0  0  0  0  0
   16.5158  -15.9186    0.0000 N   0  0  0  0  0  0  0  0  0  0  0  0
   17.8149  -16.6686    0.0000 C   0  0  0  0  0  0  0  0  0  0  0  0
   19.1140  -15.9186    0.0000 C   0  0  3  0  0  0  0  0  0  0  0  0
   19.1140  -14.4185    0.0000 O   0  0  0  0  0  0  0  0  0  0  0  0
   20.4131  -16.6686    0.0000 C   0  0  0  0  0  0  0  0  0  0  0  0
   21.7120  -15.9186    0.0000 C   0  0  0  0  0  0  0  0  0  0  0  0
   23.0111  -16.6686    0.0000 C   0  0  0  0  0  0  0  0  0  0  0  0
   24.5112  -16.6686    0.0000 C   0  0  0  0  0  0  0  0  0  0  0  0
   23.7611  -17.9675    0.0000 C   0  0  0  0  0  0  0  0  0  0  0  0
  1  2  1  0  0  0  0
  2  3  1  0  0  0  0
  2 17  1  0  0  0  0
  3  4  1  0  0  0  0
  4  5  1  0  0  0  0
  5  6  2  0  0  0  0
  5 16  1  0  0  0  0
  6  7  1  0  0  0  0
  7  8  2  0  0  0  0
  8  9  1  0  0  0  0
  8 15  1  0  0  0  0
  9 10  1  0  0  0  0
 10 11  1  0  0  0  0
 11 12  2  0  0  0  0
 12 13  1  0  0  0  0
 12 14  1  0  0  0  0
 15 16  2  0  0  0  0
 17 18  1  0  0  0  0
 18 19  1  0  0  0  0
 19 20  1  0  0  0  0
 19 21  1  0  0  0  0
 21 22  1  0  0  0  0
 22 23  1  0  0  0  0
 23 24  1  0  0  0  0
 23 25  1  0  0  0  0
 24 25  1  0  0  0  0
M  END
$$$$
