
##########                                Name:        KRJ_923_3KRJ
##########                    Molecular_Weight:             374.466
##########                DOCK_Rotatable_Bonds:                   5
##########                       Formal_Charge:              0.9997
##########                     HBond_Acceptors:                   6
##########                        HBond_Donors:                   4
##########                         Heavy_Atoms:                  28
##########                            HA_RMSDs:               9.283
##########                            HA_RMSDh:               7.597
##########                            HA_RMSDm:               6.844
##########                          Grid_Score:          -94.456123
##########                     Grid_vdw_energy:          -35.140907
##########                      Grid_es_energy:          -59.315216
##########           Internal_energy_repulsive:            3.794281

@<TRIPOS>MOLECULE
KRJ_923_3KRJ
 52 55 1 0 0
SMALL
USER_CHARGES


@<TRIPOS>ATOM
      1 C1          6.3557   31.5049   10.0271 C.ar    1  <0>        -0.0525
      2 C2          6.1930   32.1986   11.2202 C.ar    1  <0>        -0.0393
      3 C3          5.8759   33.5239    8.7574 C.ar    1  <0>        -0.0452
      4 C4          4.7389   35.8044   16.5721 C.2     1  <0>         0.0312
      5 C5          4.4109   38.4030   10.6094 C.3     1  <0>        -0.0493
      6 C6          3.6353   37.5863    9.5704 C.3     1  <0>        -0.0488
      7 C7          5.9158   38.1267   10.4768 C.3     1  <0>        -0.0342
      8 C8          3.8977   36.0716    9.7138 C.3     1  <0>        -0.0274
      9 C9          7.7524   31.4988    6.8237 C.3     1  <0>         0.0131
     10 C10         7.7058   31.2892    5.3030 C.3     1  <0>        -0.0293
     11 C11         5.5110   30.5781    5.1712 C.3     1  <0>        -0.0142
     12 C12         6.2208   36.6367   10.3880 C.2     1  <0>        -0.0802
     13 C13         5.2046   30.9067    6.6504 C.2     1  <0>        -0.0356
     14 C14         7.0342   36.7585   17.0350 C.1     1  <0>         0.1204
     15 C15         6.2029   32.1376    8.7813 C.ar    1  <0>        -0.0211
     16 C16         5.8709   33.5673   11.2168 C.ar    1  <0>         0.0412
     17 C17         5.7222   34.2531    9.9756 C.ar    1  <0>        -0.0004
     18 C18         6.0737   36.0108   16.2940 C.2     1  <0>         0.1560
     19 C19         5.2732   34.7661   14.7086 C.2     1  <0>         0.1869
     20 C20         5.3605   35.6941    9.9342 C.2     1  <0>        -0.0423
     21 C21         6.4206   31.2027    7.5737 C.2     1  <0>        -0.0341
     22 C22         5.0498   33.8854   13.5320 C.2     1  <0>         0.2814
     23 N1          7.8238   37.3615   17.6301 N.1     1  <0>        -0.1892
     24 N2          4.2639   35.0093   15.5430 N.pl3   1  <0>        -0.2989
     25 N3          6.4041   35.3419   15.1091 N.2     1  <0>        -0.2152
     26 N4          6.8848   30.1144    5.0496 N.4     1  <0>         0.2301
     27 N5          5.7701   34.2344   12.4613 N.am    1  <0>        -0.2786
     28 O1          4.2483   32.9498   13.6042 O.2     1  <0>        -0.2667
     29 H1          6.6056   30.4546   10.0580 H       1  <0>         0.0624
     30 H2          6.3153   31.6809   12.1600 H       1  <0>         0.0636
     31 H3          5.7433   34.0271    7.8110 H       1  <0>         0.0630
     32 H4          4.1811   36.1835   17.4156 H       1  <0>         0.0810
     33 H5          4.2220   39.4741   10.4448 H       1  <0>         0.0268
     34 H6          4.0766   38.1194   11.6182 H       1  <0>         0.0268
     35 H7          2.5599   37.7717    9.7086 H       1  <0>         0.0268
     36 H8          3.9510   37.9044    8.5658 H       1  <0>         0.0268
     37 H9          6.2826   38.6148    9.5619 H       1  <0>         0.0307
     38 H10         6.4268   38.5370   11.3603 H       1  <0>         0.0307
     39 H11         3.3245   35.7127   10.5813 H       1  <0>         0.0313
     40 H12         3.5615   35.5839    8.7869 H       1  <0>         0.0313
     41 H13         8.5202   30.8237    7.2295 H       1  <0>         0.0365
     42 H14         8.0104   32.5523    7.0069 H       1  <0>         0.0365
     43 H15         7.2678   32.1707    4.8121 H       1  <0>         0.0817
     44 H16         8.7215   31.1335    4.9106 H       1  <0>         0.0817
     45 H17         4.8266   29.7911    4.8217 H       1  <0>         0.0861
     46 H18         5.3742   31.4820    4.5594 H       1  <0>         0.0861
     47 H19         7.1971   36.3069   10.7114 H       1  <0>         0.0575
     48 H20         4.1921   30.9296    7.0255 H       1  <0>         0.0628
     49 H21         3.3264   34.6757   15.4436 H       1  <0>         0.1532
     50 H22         7.0587   29.7470    4.1360 H       1  <0>         0.2017
     51 H23         7.0786   29.3926    5.7142 H       1  <0>         0.2017
     52 H24         6.3062   35.0739   12.5509 H       1  <0>         0.1552
@<TRIPOS>BOND
     1     1     2   ar
     2     1    15   ar
     3     2    16   ar
     4     3    15   ar
     5     3    17   ar
     6     4    18    2
     7     4    24    1
     8     5     6    1
     9     5     7    1
    10     6     8    1
    11     7    12    1
    12     8    20    1
    13     9    10    1
    14     9    21    1
    15    10    26    1
    16    11    13    1
    17    11    26    1
    18    12    20    2
    19    13    21    2
    20    14    18    1
    21    14    23    3
    22    15    21    1
    23    16    17   ar
    24    16    27    1
    25    17    20    1
    26    18    25    1
    27    19    22    1
    28    19    24    1
    29    19    25    2
    30    22    27   am
    31    22    28    2
    32     1    29    1
    33     2    30    1
    34     3    31    1
    35     4    32    1
    36     5    33    1
    37     5    34    1
    38     6    35    1
    39     6    36    1
    40     7    37    1
    41     7    38    1
    42     8    39    1
    43     8    40    1
    44     9    41    1
    45     9    42    1
    46    10    43    1
    47    10    44    1
    48    11    45    1
    49    11    46    1
    50    12    47    1
    51    13    48    1
    52    24    49    1
    53    26    50    1
    54    26    51    1
    55    27    52    1
@<TRIPOS>SUBSTRUCTURE
     1 <0>         1 TEMP              0 ****  ****    0 ROOT

