
##########                                Name:        KRJ_923_3KRJ
##########                    Molecular_Weight:             374.466
##########                DOCK_Rotatable_Bonds:                   5
##########                       Formal_Charge:              0.9997
##########                     HBond_Acceptors:                   6
##########                        HBond_Donors:                   4
##########                         Heavy_Atoms:                  28
##########                            HA_RMSDs:              10.575
##########                            HA_RMSDh:               8.821
##########                            HA_RMSDm:               7.847
##########                          Grid_Score:          -92.655884
##########                     Grid_vdw_energy:          -30.250105
##########                      Grid_es_energy:          -62.405777
##########           Internal_energy_repulsive:            6.910041

@<TRIPOS>MOLECULE
KRJ_923_3KRJ
 52 55 1 0 0
SMALL
USER_CHARGES


@<TRIPOS>ATOM
      1 C1          6.5898   35.4913    8.1900 C.ar    1  <0>        -0.0525
      2 C2          6.3532   36.4035    9.2112 C.ar    1  <0>        -0.0393
      3 C3          5.2428   33.8202    9.3353 C.ar    1  <0>        -0.0452
      4 C4          5.2101   40.8014   13.8559 C.2     1  <0>         0.0312
      5 C5          2.6851   34.2713   14.1059 C.3     1  <0>        -0.0493
      6 C6          3.9224   33.3829   13.9388 C.3     1  <0>        -0.0488
      7 C7          1.9137   34.3510   12.7804 C.3     1  <0>        -0.0342
      8 C8          4.8588   33.9007   12.8258 C.3     1  <0>        -0.0274
      9 C9          5.2200   33.0888    6.0482 C.3     1  <0>         0.0131
     10 C10         5.1973   31.7180    5.3560 C.3     1  <0>        -0.0293
     11 C11         7.1628   30.9013    6.2562 C.3     1  <0>        -0.0142
     12 C12         2.8302   34.6424   11.5988 C.2     1  <0>        -0.0802
     13 C13         7.3277   32.0831    7.2390 C.2     1  <0>        -0.0356
     14 C14         2.9989   40.1718   14.9081 C.1     1  <0>         0.1204
     15 C15         6.0508   34.1936    8.2231 C.ar    1  <0>        -0.0211
     16 C16         5.5578   36.0537   10.3166 C.ar    1  <0>         0.0412
     17 C17         4.9777   34.7530   10.3837 C.ar    1  <0>        -0.0004
     18 C18         4.1282   39.9717   14.0623 C.2     1  <0>         0.1560
     19 C19         5.4295   38.9856   12.6350 C.2     1  <0>         0.1869
     20 C20         4.1498   34.3416   11.5476 C.2     1  <0>        -0.0423
     21 C21         6.4266   33.3285    7.0023 C.2     1  <0>        -0.0341
     22 C22         6.0619   38.0944   11.6270 C.2     1  <0>         0.2814
     23 N1          2.0756   40.3248   15.5903 N.1     1  <0>        -0.1892
     24 N2          6.0153   40.1414   12.9432 N.pl3   1  <0>        -0.2989
     25 N3          4.2756   38.8218   13.2771 N.2     1  <0>        -0.2152
     26 N4          6.5710   31.3786    5.0155 N.4     1  <0>         0.2301
     27 N5          5.3071   37.0406   11.3001 N.am    1  <0>        -0.2786
     28 O1          7.1860   38.3560   11.1900 O.2     1  <0>        -0.2667
     29 H1          7.2023   35.7865    7.3509 H       1  <0>         0.0624
     30 H2          6.7850   37.3919    9.1551 H       1  <0>         0.0636
     31 H3          4.8276   32.8245    9.3860 H       1  <0>         0.0630
     32 H4          5.3915   41.7639   14.3109 H       1  <0>         0.0810
     33 H5          2.0325   33.8437   14.8813 H       1  <0>         0.0268
     34 H6          3.0007   35.2819   14.4044 H       1  <0>         0.0268
     35 H7          4.4777   33.3708   14.8883 H       1  <0>         0.0268
     36 H8          3.5930   32.3665   13.6768 H       1  <0>         0.0268
     37 H9          1.4140   33.3866   12.6070 H       1  <0>         0.0307
     38 H10         1.1707   35.1587   12.8552 H       1  <0>         0.0307
     39 H11         5.4039   34.7694   13.2235 H       1  <0>         0.0313
     40 H12         5.5491   33.0858   12.5624 H       1  <0>         0.0313
     41 H13         5.2589   33.8578    5.2626 H       1  <0>         0.0365
     42 H14         4.3006   33.1753    6.6458 H       1  <0>         0.0365
     43 H15         4.7757   30.9591    6.0316 H       1  <0>         0.0817
     44 H16         4.5812   31.7631    4.4458 H       1  <0>         0.0817
     45 H17         8.1480   30.4598    6.0459 H       1  <0>         0.0861
     46 H18         6.5077   30.1404    6.7053 H       1  <0>         0.0861
     47 H19         2.3947   35.1254   10.7365 H       1  <0>         0.0575
     48 H20         8.0365   32.0457    8.0530 H       1  <0>         0.0628
     49 H21         6.8849   40.4745   12.5789 H       1  <0>         0.1532
     50 H22         6.6000   30.6705    4.3100 H       1  <0>         0.2017
     51 H23         7.0618   32.1784    4.6698 H       1  <0>         0.2017
     52 H24         4.4569   36.9360   11.8161 H       1  <0>         0.1552
@<TRIPOS>BOND
     1     1     2   ar
     2     1    15   ar
     3     2    16   ar
     4     3    15   ar
     5     3    17   ar
     6     4    18    2
     7     4    24    1
     8     5     6    1
     9     5     7    1
    10     6     8    1
    11     7    12    1
    12     8    20    1
    13     9    10    1
    14     9    21    1
    15    10    26    1
    16    11    13    1
    17    11    26    1
    18    12    20    2
    19    13    21    2
    20    14    18    1
    21    14    23    3
    22    15    21    1
    23    16    17   ar
    24    16    27    1
    25    17    20    1
    26    18    25    1
    27    19    22    1
    28    19    24    1
    29    19    25    2
    30    22    27   am
    31    22    28    2
    32     1    29    1
    33     2    30    1
    34     3    31    1
    35     4    32    1
    36     5    33    1
    37     5    34    1
    38     6    35    1
    39     6    36    1
    40     7    37    1
    41     7    38    1
    42     8    39    1
    43     8    40    1
    44     9    41    1
    45     9    42    1
    46    10    43    1
    47    10    44    1
    48    11    45    1
    49    11    46    1
    50    12    47    1
    51    13    48    1
    52    24    49    1
    53    26    50    1
    54    26    51    1
    55    27    52    1
@<TRIPOS>SUBSTRUCTURE
     1 <0>         1 TEMP              0 ****  ****    0 ROOT

