
##########                                Name:        KRJ_923_3KRJ
##########                    Molecular_Weight:             374.466
##########                DOCK_Rotatable_Bonds:                   5
##########                       Formal_Charge:              0.9997
##########                     HBond_Acceptors:                   6
##########                        HBond_Donors:                   4
##########                         Heavy_Atoms:                  28
##########                            HA_RMSDs:               9.074
##########                            HA_RMSDh:               7.135
##########                            HA_RMSDm:               6.572
##########                          Grid_Score:          -97.239777
##########                     Grid_vdw_energy:          -41.569695
##########                      Grid_es_energy:          -55.670078
##########           Internal_energy_repulsive:            5.864958

@<TRIPOS>MOLECULE
KRJ_923_3KRJ
 52 55 1 0 0
SMALL
USER_CHARGES


@<TRIPOS>ATOM
      1 C1          7.5648   31.7506    7.5729 C.ar    1  <0>        -0.0525
      2 C2          6.9382   32.9749    7.7716 C.ar    1  <0>        -0.0393
      3 C3          6.4723   30.8414    9.5473 C.ar    1  <0>        -0.0452
      4 C4          4.1654   38.7317    9.3820 C.2     1  <0>         0.0312
      5 C5          3.3778   33.3683   13.1888 C.3     1  <0>        -0.0493
      6 C6          4.5066   32.3728   13.4762 C.3     1  <0>        -0.0488
      7 C7          2.6563   32.9824   11.8891 C.3     1  <0>        -0.0342
      8 C8          5.5262   32.3063   12.3188 C.3     1  <0>        -0.0274
      9 C9          7.5050   28.6474    6.8479 C.3     1  <0>         0.0131
     10 C10         7.6227   27.1167    6.8915 C.3     1  <0>        -0.0293
     11 C11         8.7961   26.9684    8.8767 C.3     1  <0>        -0.0142
     12 C12         3.6316   32.6841   10.7573 C.2     1  <0>        -0.0802
     13 C13         8.6389   28.4709    9.2048 C.2     1  <0>        -0.0356
     14 C14         1.8368   38.4166    8.4484 C.1     1  <0>         0.1204
     15 C15         7.3540   30.6664    8.4422 C.ar    1  <0>        -0.0211
     16 C16         6.0641   33.1666    8.8561 C.ar    1  <0>         0.0412
     17 C17         5.8087   32.0889    9.7542 C.ar    1  <0>        -0.0004
     18 C18         3.1667   38.0113    8.7614 C.2     1  <0>         0.1560
     19 C19         4.9071   36.7229    8.8812 C.2     1  <0>         0.1869
     20 C20         4.9078   32.2623   10.9236 C.2     1  <0>        -0.0423
     21 C21         8.1381   29.3946    8.0581 C.2     1  <0>        -0.0341
     22 C22         5.9161   35.6374    8.7638 C.2     1  <0>         0.2814
     23 N1          0.7546   38.7359    8.1872 N.1     1  <0>        -0.1892
     24 N2          5.2558   37.8805    9.4403 N.pl3   1  <0>        -0.2989
     25 N3          3.6508   36.7366    8.4428 N.2     1  <0>        -0.2152
     26 N4          8.9326   26.7955    7.4384 N.4     1  <0>         0.2301
     27 N5          5.4130   34.4176    8.9782 N.am    1  <0>        -0.2786
     28 O1          7.0915   35.9118    8.5067 O.2     1  <0>        -0.2667
     29 H1          8.2296   31.6293    6.7303 H       1  <0>         0.0624
     30 H2          7.1245   33.7879    7.0855 H       1  <0>         0.0636
     31 H3          6.3046   30.0247   10.2338 H       1  <0>         0.0630
     32 H4          4.1089   39.7468    9.7461 H       1  <0>         0.0810
     33 H5          2.6593   33.3538   14.0216 H       1  <0>         0.0268
     34 H6          3.8013   34.3780   13.0835 H       1  <0>         0.0268
     35 H7          5.0314   32.6899   14.3895 H       1  <0>         0.0268
     36 H8          4.0676   31.3739   13.6161 H       1  <0>         0.0268
     37 H9          2.0520   32.0828   12.0773 H       1  <0>         0.0307
     38 H10         2.0111   33.8196   11.5843 H       1  <0>         0.0307
     39 H11         6.1585   33.2045   12.3770 H       1  <0>         0.0313
     40 H12         6.1232   31.3917   12.4500 H       1  <0>         0.0313
     41 H13         8.0159   28.9948    5.9378 H       1  <0>         0.0365
     42 H14         6.4342   28.8985    6.8247 H       1  <0>         0.0365
     43 H15         6.8319   26.6937    7.5284 H       1  <0>         0.0817
     44 H16         7.5223   26.6999    5.8785 H       1  <0>         0.0817
     45 H17         9.6923   26.5757    9.3794 H       1  <0>         0.0861
     46 H18         7.9086   26.4220    9.2286 H       1  <0>         0.0861
     47 H19         3.2786   32.8193    9.7456 H       1  <0>         0.0575
     48 H20         8.8665   28.8614   10.1856 H       1  <0>         0.0628
     49 H21         6.1493   38.0971    9.8335 H       1  <0>         0.1532
     50 H22         9.1931   25.8564    7.2143 H       1  <0>         0.2017
     51 H23         9.6336   27.4061    7.0698 H       1  <0>         0.2017
     52 H24         4.4543   34.3846    9.2609 H       1  <0>         0.1552
@<TRIPOS>BOND
     1     1     2   ar
     2     1    15   ar
     3     2    16   ar
     4     3    15   ar
     5     3    17   ar
     6     4    18    2
     7     4    24    1
     8     5     6    1
     9     5     7    1
    10     6     8    1
    11     7    12    1
    12     8    20    1
    13     9    10    1
    14     9    21    1
    15    10    26    1
    16    11    13    1
    17    11    26    1
    18    12    20    2
    19    13    21    2
    20    14    18    1
    21    14    23    3
    22    15    21    1
    23    16    17   ar
    24    16    27    1
    25    17    20    1
    26    18    25    1
    27    19    22    1
    28    19    24    1
    29    19    25    2
    30    22    27   am
    31    22    28    2
    32     1    29    1
    33     2    30    1
    34     3    31    1
    35     4    32    1
    36     5    33    1
    37     5    34    1
    38     6    35    1
    39     6    36    1
    40     7    37    1
    41     7    38    1
    42     8    39    1
    43     8    40    1
    44     9    41    1
    45     9    42    1
    46    10    43    1
    47    10    44    1
    48    11    45    1
    49    11    46    1
    50    12    47    1
    51    13    48    1
    52    24    49    1
    53    26    50    1
    54    26    51    1
    55    27    52    1
@<TRIPOS>SUBSTRUCTURE
     1 <0>         1 TEMP              0 ****  ****    0 ROOT

