
##########                                Name:        KRJ_923_3KRJ
##########                    Molecular_Weight:             374.466
##########                DOCK_Rotatable_Bonds:                   5
##########                       Formal_Charge:              0.9997
##########                     HBond_Acceptors:                   6
##########                        HBond_Donors:                   4
##########                         Heavy_Atoms:                  28
##########                            HA_RMSDs:               9.386
##########                            HA_RMSDh:               7.766
##########                            HA_RMSDm:               6.988
##########                          Grid_Score:          -96.112839
##########                     Grid_vdw_energy:          -36.608341
##########                      Grid_es_energy:          -59.504498
##########           Internal_energy_repulsive:            5.917137

@<TRIPOS>MOLECULE
KRJ_923_3KRJ
 52 55 1 0 0
SMALL
USER_CHARGES


@<TRIPOS>ATOM
      1 C1          6.3284   31.9158    9.8157 C.ar    1  <0>        -0.0525
      2 C2          6.3154   32.6778   10.9776 C.ar    1  <0>        -0.0393
      3 C3          5.7716   33.8789    8.4909 C.ar    1  <0>        -0.0452
      4 C4          5.8380   36.3780   16.3776 C.2     1  <0>         0.0312
      5 C5          4.5859   38.8815   10.1876 C.3     1  <0>        -0.0493
      6 C6          3.7685   38.0516    9.1920 C.3     1  <0>        -0.0488
      7 C7          6.0798   38.5590   10.0374 C.3     1  <0>        -0.0342
      8 C8          3.9922   36.5360    9.3832 C.3     1  <0>        -0.0274
      9 C9          7.5044   31.4734    6.6803 C.3     1  <0>         0.0131
     10 C10         7.4606   31.2190    5.1663 C.3     1  <0>        -0.0293
     11 C11         5.1722   30.9590    4.9777 C.3     1  <0>        -0.0142
     12 C12         6.3424   37.0588    9.9949 C.2     1  <0>        -0.0802
     13 C13         4.8956   31.3991    6.4337 C.2     1  <0>        -0.0356
     14 C14         7.7090   38.0493   16.0621 C.1     1  <0>         0.1204
     15 C15         6.0598   32.4855    8.5591 C.ar    1  <0>        -0.0211
     16 C16         6.0338   34.0545   10.9304 C.ar    1  <0>         0.0412
     17 C17         5.7712   34.6774    9.6749 C.ar    1  <0>        -0.0004
     18 C18         6.8636   36.9707   15.6715 C.2     1  <0>         0.1560
     19 C19         6.0504   35.3960   14.4215 C.2     1  <0>         0.1869
     20 C20         5.4482   36.1257    9.5900 C.2     1  <0>        -0.0423
     21 C21         6.1191   31.4801    7.3906 C.2     1  <0>        -0.0341
     22 C22         5.7614   34.3855   13.3701 C.2     1  <0>         0.2814
     23 N1          8.4033   38.9237   16.3698 N.1     1  <0>        -0.1892
     24 N2          5.3455   35.3822   15.5515 N.pl3   1  <0>        -0.2989
     25 N3          6.9932   36.3351   14.4305 N.2     1  <0>        -0.2152
     26 N4          6.4269   30.2243    4.9209 N.4     1  <0>         0.2301
     27 N5          6.0870   34.7906   12.1384 N.am    1  <0>        -0.2786
     28 O1          5.2533   33.3034   13.6765 O.2     1  <0>        -0.2667
     29 H1          6.5502   30.8607    9.8797 H       1  <0>         0.0624
     30 H2          6.5238   32.2074   11.9272 H       1  <0>         0.0636
     31 H3          5.5517   34.3347    7.5368 H       1  <0>         0.0630
     32 H4          5.4917   36.6366   17.3673 H       1  <0>         0.0810
     33 H5          4.4230   39.9512    9.9893 H       1  <0>         0.0268
     34 H6          4.2634   38.6421   11.2117 H       1  <0>         0.0268
     35 H7          2.7014   38.2715    9.3432 H       1  <0>         0.0268
     36 H8          4.0735   38.3262    8.1713 H       1  <0>         0.0268
     37 H9          6.4422   39.0050    9.0995 H       1  <0>         0.0307
     38 H10         6.6186   38.9850   10.8966 H       1  <0>         0.0307
     39 H11         3.4262   36.2232   10.2730 H       1  <0>         0.0313
     40 H12         3.6252   36.0264    8.4802 H       1  <0>         0.0313
     41 H13         8.1078   30.6739    7.1349 H       1  <0>         0.0365
     42 H14         7.9646   32.4599    6.8390 H       1  <0>         0.0365
     43 H15         7.2243   32.1510    4.6320 H       1  <0>         0.0817
     44 H16         8.4350   30.8475    4.8161 H       1  <0>         0.0817
     45 H17         4.3533   30.3127    4.6289 H       1  <0>         0.0861
     46 H18         5.2388   31.8476    4.3330 H       1  <0>         0.0861
     47 H19         7.3153   36.7133   10.3118 H       1  <0>         0.0575
     48 H20         3.8983   31.6395    6.7709 H       1  <0>         0.0628
     49 H21         4.5919   34.7608   15.7659 H       1  <0>         0.1532
     50 H22         6.5494   29.7946    4.0264 H       1  <0>         0.2017
     51 H23         6.4514   29.5045    5.6147 H       1  <0>         0.2017
     52 H24         6.4094   35.7341   12.0605 H       1  <0>         0.1552
@<TRIPOS>BOND
     1     1     2   ar
     2     1    15   ar
     3     2    16   ar
     4     3    15   ar
     5     3    17   ar
     6     4    18    2
     7     4    24    1
     8     5     6    1
     9     5     7    1
    10     6     8    1
    11     7    12    1
    12     8    20    1
    13     9    10    1
    14     9    21    1
    15    10    26    1
    16    11    13    1
    17    11    26    1
    18    12    20    2
    19    13    21    2
    20    14    18    1
    21    14    23    3
    22    15    21    1
    23    16    17   ar
    24    16    27    1
    25    17    20    1
    26    18    25    1
    27    19    22    1
    28    19    24    1
    29    19    25    2
    30    22    27   am
    31    22    28    2
    32     1    29    1
    33     2    30    1
    34     3    31    1
    35     4    32    1
    36     5    33    1
    37     5    34    1
    38     6    35    1
    39     6    36    1
    40     7    37    1
    41     7    38    1
    42     8    39    1
    43     8    40    1
    44     9    41    1
    45     9    42    1
    46    10    43    1
    47    10    44    1
    48    11    45    1
    49    11    46    1
    50    12    47    1
    51    13    48    1
    52    24    49    1
    53    26    50    1
    54    26    51    1
    55    27    52    1
@<TRIPOS>SUBSTRUCTURE
     1 <0>         1 TEMP              0 ****  ****    0 ROOT

