
##########                                Name:        KRJ_923_3KRJ
##########                    Molecular_Weight:             374.466
##########                DOCK_Rotatable_Bonds:                   5
##########                       Formal_Charge:              0.9997
##########                     HBond_Acceptors:                   6
##########                        HBond_Donors:                   4
##########                         Heavy_Atoms:                  28
##########                            HA_RMSDs:               9.370
##########                            HA_RMSDh:               7.752
##########                            HA_RMSDm:               7.010
##########                          Grid_Score:          -94.721085
##########                     Grid_vdw_energy:          -33.996780
##########                      Grid_es_energy:          -60.724300
##########           Internal_energy_repulsive:            6.287883

@<TRIPOS>MOLECULE
KRJ_923_3KRJ
 52 55 1 0 0
SMALL
USER_CHARGES


@<TRIPOS>ATOM
      1 C1          5.9397   31.7101    9.7359 C.ar    1  <0>        -0.0525
      2 C2          5.7978   32.4177   10.9234 C.ar    1  <0>        -0.0393
      3 C3          5.8092   33.7764    8.4584 C.ar    1  <0>        -0.0452
      4 C4          5.2193   35.6159   16.5458 C.2     1  <0>         0.0312
      5 C5          4.8365   38.7972   10.2384 C.3     1  <0>        -0.0493
      6 C6          4.1124   38.0994    9.0822 C.3     1  <0>        -0.0488
      7 C7          6.2974   38.3278   10.3020 C.3     1  <0>        -0.0342
      8 C8          4.1562   36.5621    9.2176 C.3     1  <0>        -0.0274
      9 C9          7.5935   31.2874    6.8202 C.3     1  <0>         0.0131
     10 C10         7.7876   31.1054    5.3076 C.3     1  <0>        -0.0293
     11 C11         5.5517   31.0900    4.7239 C.3     1  <0>        -0.0142
     12 C12         6.4181   36.8116   10.2137 C.2     1  <0>        -0.0802
     13 C13         5.0709   31.4919    6.1371 C.2     1  <0>        -0.0356
     14 C14         6.2103   37.9102   16.1622 C.1     1  <0>         0.1204
     15 C15         5.9480   32.3590    8.4891 C.ar    1  <0>        -0.0211
     16 C16         5.6603   33.8170   10.9134 C.ar    1  <0>         0.0412
     17 C17         5.6793   34.5180    9.6719 C.ar    1  <0>        -0.0004
     18 C18         5.7316   36.6288   15.7627 C.2     1  <0>         0.1560
     19 C19         5.2229   34.9888   14.4380 C.2     1  <0>         0.1869
     20 C20         5.5145   35.9943    9.6223 C.2     1  <0>        -0.0423
     21 C21         6.1133   31.4050    7.2881 C.2     1  <0>        -0.0341
     22 C22         5.0363   34.0518   13.2990 C.2     1  <0>         0.2814
     23 N1          6.6039   38.9534   16.4755 N.1     1  <0>        -0.1892
     24 N2          4.9073   34.5907   15.6693 N.pl3   1  <0>        -0.2989
     25 N3          5.7338   36.2174   14.4243 N.2     1  <0>        -0.2152
     26 N4          6.7231   30.2337    4.8331 N.4     1  <0>         0.2301
     27 N5          5.5729   34.4900   12.1558 N.am    1  <0>        -0.2786
     28 O1          4.4198   32.9954   13.4630 O.2     1  <0>        -0.2667
     29 H1          6.0462   30.6359    9.7719 H       1  <0>         0.0624
     30 H2          5.7931   31.8872   11.8641 H       1  <0>         0.0636
     31 H3          5.8021   34.2939    7.5105 H       1  <0>         0.0630
     32 H4          5.0887   35.6213   17.6178 H       1  <0>         0.0810
     33 H5          4.8108   39.8854   10.0797 H       1  <0>         0.0268
     34 H6          4.3336   38.5497   11.1849 H       1  <0>         0.0268
     35 H7          3.0609   38.4225    9.0795 H       1  <0>         0.0268
     36 H8          4.6010   38.3836    8.1385 H       1  <0>         0.0268
     37 H9          6.8457   38.7729    9.4587 H       1  <0>         0.0307
     38 H10         6.7308   38.6589   11.2573 H       1  <0>         0.0307
     39 H11         3.4283   36.2726    9.9898 H       1  <0>         0.0313
     40 H12         3.8905   36.1319    8.2407 H       1  <0>         0.0313
     41 H13         8.0320   30.4111    7.3199 H       1  <0>         0.0365
     42 H14         8.1098   32.2135    7.1131 H       1  <0>         0.0365
     43 H15         7.7351   32.0793    4.7988 H       1  <0>         0.0817
     44 H16         8.7685   30.6516    5.1033 H       1  <0>         0.0817
     45 H17         4.7483   30.5469    4.2046 H       1  <0>         0.0861
     46 H18         5.8112   31.9945    4.1544 H       1  <0>         0.0861
     47 H19         7.2905   36.3538   10.6562 H       1  <0>         0.0575
     48 H20         4.0573   31.8183    6.3170 H       1  <0>         0.0628
     49 H21         4.5136   33.7055   15.9173 H       1  <0>         0.1532
     50 H22         6.9571   29.8333    3.9472 H       1  <0>         0.2017
     51 H23         6.5602   29.4854    5.4763 H       1  <0>         0.2017
     52 H24         5.9624   35.4107   12.1814 H       1  <0>         0.1552
@<TRIPOS>BOND
     1     1     2   ar
     2     1    15   ar
     3     2    16   ar
     4     3    15   ar
     5     3    17   ar
     6     4    18    2
     7     4    24    1
     8     5     6    1
     9     5     7    1
    10     6     8    1
    11     7    12    1
    12     8    20    1
    13     9    10    1
    14     9    21    1
    15    10    26    1
    16    11    13    1
    17    11    26    1
    18    12    20    2
    19    13    21    2
    20    14    18    1
    21    14    23    3
    22    15    21    1
    23    16    17   ar
    24    16    27    1
    25    17    20    1
    26    18    25    1
    27    19    22    1
    28    19    24    1
    29    19    25    2
    30    22    27   am
    31    22    28    2
    32     1    29    1
    33     2    30    1
    34     3    31    1
    35     4    32    1
    36     5    33    1
    37     5    34    1
    38     6    35    1
    39     6    36    1
    40     7    37    1
    41     7    38    1
    42     8    39    1
    43     8    40    1
    44     9    41    1
    45     9    42    1
    46    10    43    1
    47    10    44    1
    48    11    45    1
    49    11    46    1
    50    12    47    1
    51    13    48    1
    52    24    49    1
    53    26    50    1
    54    26    51    1
    55    27    52    1
@<TRIPOS>SUBSTRUCTURE
     1 <0>         1 TEMP              0 ****  ****    0 ROOT

