
##########                                Name:        KRJ_923_3KRJ
##########                    Molecular_Weight:             374.466
##########                DOCK_Rotatable_Bonds:                   5
##########                       Formal_Charge:              0.9997
##########                     HBond_Acceptors:                   6
##########                        HBond_Donors:                   4
##########                         Heavy_Atoms:                  28
##########                            HA_RMSDs:               8.878
##########                            HA_RMSDh:               7.145
##########                            HA_RMSDm:               6.608
##########                          Grid_Score:          -95.346489
##########                     Grid_vdw_energy:          -37.834763
##########                      Grid_es_energy:          -57.511726
##########           Internal_energy_repulsive:            3.812945

@<TRIPOS>MOLECULE
KRJ_923_3KRJ
 52 55 1 0 0
SMALL
USER_CHARGES


@<TRIPOS>ATOM
      1 C1          7.5175   31.6278    7.5845 C.ar    1  <0>        -0.0525
      2 C2          6.7872   32.8079    7.5143 C.ar    1  <0>        -0.0393
      3 C3          6.2761   30.9466    9.5628 C.ar    1  <0>        -0.0452
      4 C4          3.5784   38.5734    7.8902 C.2     1  <0>         0.0312
      5 C5          2.5438   33.7281   12.3333 C.3     1  <0>        -0.0493
      6 C6          3.7840   33.0572   12.9332 C.3     1  <0>        -0.0488
      7 C7          2.0395   32.9179   11.1300 C.3     1  <0>        -0.0342
      8 C8          4.9188   32.9097   11.8968 C.3     1  <0>        -0.0274
      9 C9          7.8128   28.4987    7.3264 C.3     1  <0>         0.0131
     10 C10         8.0140   26.9993    7.5912 C.3     1  <0>        -0.0293
     11 C11         8.8613   27.1899    9.7326 C.3     1  <0>        -0.0142
     12 C12         3.1663   32.5471   10.1740 C.2     1  <0>        -0.0802
     13 C13         8.5634   28.7038    9.8296 C.2     1  <0>        -0.0356
     14 C14         1.4263   37.8611    6.7704 C.1     1  <0>         0.1204
     15 C15         7.2872   30.6790    8.5957 C.ar    1  <0>        -0.0211
     16 C16         5.7848   33.0895    8.4593 C.ar    1  <0>         0.0412
     17 C17         5.5066   32.1476    9.4931 C.ar    1  <0>        -0.0004
     18 C18         2.6966   37.6447    7.3788 C.2     1  <0>         0.1560
     19 C19         4.4135   36.5533    8.1301 C.2     1  <0>         0.1869
     20 C20         4.4693   32.4220   10.5216 C.2     1  <0>        -0.0423
     21 C21         8.1978   29.4369    8.5076 C.2     1  <0>        -0.0341
     22 C22         5.4418   35.5424    8.4917 C.2     1  <0>         0.2814
     23 N1          0.3936   38.0251    6.2723 N.1     1  <0>        -0.1892
     24 N2          4.6571   37.8427    8.3584 N.pl3   1  <0>        -0.2989
     25 N3          3.2399   36.3634    7.5322 N.2     1  <0>        -0.2152
     26 N4          9.2364   26.8538    8.3675 N.4     1  <0>         0.2301
     27 N5          5.0370   34.2817    8.3071 N.am    1  <0>        -0.2786
     28 O1          6.5369   35.9049    8.9300 O.2     1  <0>        -0.2667
     29 H1          8.2801   31.4350    6.8445 H       1  <0>         0.0624
     30 H2          6.9918   33.5166    6.7254 H       1  <0>         0.0636
     31 H3          6.0901   30.2360   10.3546 H       1  <0>         0.0630
     32 H4          3.4537   39.6458    7.9194 H       1  <0>         0.0810
     33 H5          1.7524   33.7775   13.0958 H       1  <0>         0.0268
     34 H6          2.8038   34.7448   12.0038 H       1  <0>         0.0268
     35 H7          4.1482   33.6736   13.7683 H       1  <0>         0.0268
     36 H8          3.5033   32.0560   13.2925 H       1  <0>         0.0268
     37 H9          1.5751   31.9921   11.5005 H       1  <0>         0.0307
     38 H10         1.3015   33.5238   10.5838 H       1  <0>         0.0307
     39 H11         5.3843   33.8977   11.7665 H       1  <0>         0.0313
     40 H12         5.6408   32.1799   12.2919 H       1  <0>         0.0313
     41 H13         8.4409   28.7720    6.4657 H       1  <0>         0.0365
     42 H14         6.7464   28.6582    7.1085 H       1  <0>         0.0365
     43 H15         7.1583   26.5953    8.1521 H       1  <0>         0.0817
     44 H16         8.1023   26.4549    6.6394 H       1  <0>         0.0817
     45 H17         9.6875   26.9351   10.4127 H       1  <0>         0.0861
     46 H18         7.9635   26.6212   10.0162 H       1  <0>         0.0861
     47 H19         2.9064   32.3706    9.1407 H       1  <0>         0.0575
     48 H20         8.6071   29.2284   10.7726 H       1  <0>         0.0628
     49 H21         5.4763   38.2176    8.7923 H       1  <0>         0.1532
     50 H22         9.5855   25.9183    8.3127 H       1  <0>         0.2017
     51 H23         9.9492   27.4691    8.0308 H       1  <0>         0.2017
     52 H24         4.0844   34.1662    8.0254 H       1  <0>         0.1552
@<TRIPOS>BOND
     1     1     2   ar
     2     1    15   ar
     3     2    16   ar
     4     3    15   ar
     5     3    17   ar
     6     4    18    2
     7     4    24    1
     8     5     6    1
     9     5     7    1
    10     6     8    1
    11     7    12    1
    12     8    20    1
    13     9    10    1
    14     9    21    1
    15    10    26    1
    16    11    13    1
    17    11    26    1
    18    12    20    2
    19    13    21    2
    20    14    18    1
    21    14    23    3
    22    15    21    1
    23    16    17   ar
    24    16    27    1
    25    17    20    1
    26    18    25    1
    27    19    22    1
    28    19    24    1
    29    19    25    2
    30    22    27   am
    31    22    28    2
    32     1    29    1
    33     2    30    1
    34     3    31    1
    35     4    32    1
    36     5    33    1
    37     5    34    1
    38     6    35    1
    39     6    36    1
    40     7    37    1
    41     7    38    1
    42     8    39    1
    43     8    40    1
    44     9    41    1
    45     9    42    1
    46    10    43    1
    47    10    44    1
    48    11    45    1
    49    11    46    1
    50    12    47    1
    51    13    48    1
    52    24    49    1
    53    26    50    1
    54    26    51    1
    55    27    52    1
@<TRIPOS>SUBSTRUCTURE
     1 <0>         1 TEMP              0 ****  ****    0 ROOT

