
##########                                Name:        KRJ_923_3KRJ
##########                    Molecular_Weight:             374.466
##########                DOCK_Rotatable_Bonds:                   5
##########                       Formal_Charge:              0.9997
##########                     HBond_Acceptors:                   6
##########                        HBond_Donors:                   4
##########                         Heavy_Atoms:                  28
##########                            HA_RMSDs:               9.136
##########                            HA_RMSDh:               7.269
##########                            HA_RMSDm:               6.704
##########                          Grid_Score:          -97.130890
##########                     Grid_vdw_energy:          -40.330841
##########                      Grid_es_energy:          -56.800053
##########           Internal_energy_repulsive:            4.073493

@<TRIPOS>MOLECULE
KRJ_923_3KRJ
 52 55 1 0 0
SMALL
USER_CHARGES


@<TRIPOS>ATOM
      1 C1          7.2655   31.9323    7.3103 C.ar    1  <0>        -0.0525
      2 C2          6.5717   33.1335    7.3921 C.ar    1  <0>        -0.0393
      3 C3          6.2383   31.1679    9.3789 C.ar    1  <0>        -0.0452
      4 C4          3.6652   38.9599    8.4869 C.2     1  <0>         0.0312
      5 C5          2.8407   33.8640   12.6399 C.3     1  <0>        -0.0493
      6 C6          4.2109   33.3377   13.0801 C.3     1  <0>        -0.0488
      7 C7          2.2493   32.9474   11.5589 C.3     1  <0>        -0.0342
      8 C8          5.1961   33.2318   11.8962 C.3     1  <0>        -0.0274
      9 C9          7.6316   28.9952    6.6645 C.3     1  <0>         0.0131
     10 C10         7.7390   27.4631    6.6538 C.3     1  <0>        -0.0293
     11 C11         8.4350   27.2018    8.8418 C.3     1  <0>        -0.0142
     12 C12         3.2591   32.6232   10.4651 C.2     1  <0>        -0.0802
     13 C13         8.2054   28.6871    9.2037 C.2     1  <0>        -0.0356
     14 C14         1.3742   38.3981    7.5766 C.1     1  <0>         0.1204
     15 C15         7.1218   30.9316    8.2868 C.ar    1  <0>        -0.0211
     16 C16         5.6948   33.3849    8.4621 C.ar    1  <0>         0.0412
     17 C17         5.5063   32.3910    9.4669 C.ar    1  <0>        -0.0004
     18 C18         2.6838   38.0954    8.0500 C.2     1  <0>         0.1560
     19 C19         4.3995   36.8904    8.6046 C.2     1  <0>         0.1869
     20 C20         4.6041   32.6312   10.6235 C.2     1  <0>        -0.0423
     21 C21         7.9744   29.6731    8.0234 C.2     1  <0>        -0.0341
     22 C22         5.3973   35.8144    8.8424 C.2     1  <0>         0.2814
     23 N1          0.3086   38.6325    7.1882 N.1     1  <0>        -0.1892
     24 N2          4.7402   38.1581    8.8307 N.pl3   1  <0>        -0.2989
     25 N3          3.1632   36.7819    8.1246 N.2     1  <0>        -0.2152
     26 N4          8.8925   27.1012    7.4642 N.4     1  <0>         0.2301
     27 N5          4.9745   34.6035    8.4653 N.am    1  <0>        -0.2786
     28 O1          6.4856   36.0841    9.3579 O.2     1  <0>        -0.2667
     29 H1          7.9310   31.7637    6.4765 H       1  <0>         0.0624
     30 H2          6.7075   33.8821    6.6256 H       1  <0>         0.0636
     31 H3          6.1213   30.4167   10.1460 H       1  <0>         0.0630
     32 H4          3.6075   40.0366    8.5480 H       1  <0>         0.0810
     33 H5          2.1643   33.8870   13.5071 H       1  <0>         0.0268
     34 H6          2.9548   34.8796   12.2330 H       1  <0>         0.0268
     35 H7          4.6303   34.0290   13.8260 H       1  <0>         0.0268
     36 H8          4.0793   32.3376   13.5188 H       1  <0>         0.0268
     37 H9          1.9312   32.0069   12.0323 H       1  <0>         0.0307
     38 H10         1.3878   33.4556   11.1012 H       1  <0>         0.0307
     39 H11         5.5436   34.2477   11.6572 H       1  <0>         0.0313
     40 H12         6.0322   32.5906   12.2122 H       1  <0>         0.0313
     41 H13         8.3339   29.3834    5.9122 H       1  <0>         0.0365
     42 H14         6.5932   29.2579    6.4139 H       1  <0>         0.0365
     43 H15         6.8257   27.0162    7.0734 H       1  <0>         0.0817
     44 H16         7.8701   27.0996    5.6239 H       1  <0>         0.0817
     45 H17         9.1955   26.7749    9.5122 H       1  <0>         0.0861
     46 H18         7.4920   26.6471    8.9558 H       1  <0>         0.0861
     47 H19         2.8731   32.3676    9.4893 H       1  <0>         0.0575
     48 H20         8.2055   29.0246   10.2296 H       1  <0>         0.0628
     49 H21         5.6192   38.4753    9.1867 H       1  <0>         0.1532
     50 H22         9.1983   26.1722    7.2559 H       1  <0>         0.2017
     51 H23         9.6574   27.7227    7.2951 H       1  <0>         0.2017
     52 H24         4.0287   34.5520    8.1446 H       1  <0>         0.1552
@<TRIPOS>BOND
     1     1     2   ar
     2     1    15   ar
     3     2    16   ar
     4     3    15   ar
     5     3    17   ar
     6     4    18    2
     7     4    24    1
     8     5     6    1
     9     5     7    1
    10     6     8    1
    11     7    12    1
    12     8    20    1
    13     9    10    1
    14     9    21    1
    15    10    26    1
    16    11    13    1
    17    11    26    1
    18    12    20    2
    19    13    21    2
    20    14    18    1
    21    14    23    3
    22    15    21    1
    23    16    17   ar
    24    16    27    1
    25    17    20    1
    26    18    25    1
    27    19    22    1
    28    19    24    1
    29    19    25    2
    30    22    27   am
    31    22    28    2
    32     1    29    1
    33     2    30    1
    34     3    31    1
    35     4    32    1
    36     5    33    1
    37     5    34    1
    38     6    35    1
    39     6    36    1
    40     7    37    1
    41     7    38    1
    42     8    39    1
    43     8    40    1
    44     9    41    1
    45     9    42    1
    46    10    43    1
    47    10    44    1
    48    11    45    1
    49    11    46    1
    50    12    47    1
    51    13    48    1
    52    24    49    1
    53    26    50    1
    54    26    51    1
    55    27    52    1
@<TRIPOS>SUBSTRUCTURE
     1 <0>         1 TEMP              0 ****  ****    0 ROOT

