
##########                                Name:        KRJ_923_3KRJ
##########                    Molecular_Weight:             374.466
##########                DOCK_Rotatable_Bonds:                   5
##########                       Formal_Charge:              0.9997
##########                     HBond_Acceptors:                   6
##########                        HBond_Donors:                   4
##########                         Heavy_Atoms:                  28
##########                            HA_RMSDs:               9.285
##########                            HA_RMSDh:               7.596
##########                            HA_RMSDm:               6.839
##########                          Grid_Score:          -94.944000
##########                     Grid_vdw_energy:          -35.826107
##########                      Grid_es_energy:          -59.117889
##########           Internal_energy_repulsive:            3.641693

@<TRIPOS>MOLECULE
KRJ_923_3KRJ
 52 55 1 0 0
SMALL
USER_CHARGES


@<TRIPOS>ATOM
      1 C1          6.5179   31.7591    9.7193 C.ar    1  <0>        -0.0525
      2 C2          6.5444   32.5176   10.8833 C.ar    1  <0>        -0.0393
      3 C3          5.4345   33.5811    8.5255 C.ar    1  <0>        -0.0452
      4 C4          6.0241   36.1636   16.3545 C.2     1  <0>         0.0312
      5 C5          3.9349   38.4311   10.4572 C.3     1  <0>        -0.0493
      6 C6          2.9064   37.3671   10.0595 C.3     1  <0>        -0.0488
      7 C7          5.2038   38.2782    9.6057 C.3     1  <0>        -0.0342
      8 C8          3.4655   35.9366   10.2167 C.3     1  <0>        -0.0274
      9 C9          7.4609   31.1464    6.7445 C.3     1  <0>         0.0131
     10 C10         7.5147   30.9185    5.2266 C.3     1  <0>        -0.0293
     11 C11         5.2343   30.8736    4.8550 C.3     1  <0>        -0.0142
     12 C12         5.6813   36.8329    9.5404 C.2     1  <0>        -0.0802
     13 C13         4.8841   31.3168    6.2940 C.2     1  <0>        -0.0356
     14 C14         7.8939   37.8153   15.9435 C.1     1  <0>         0.1204
     15 C15         5.9696   32.2610    8.5263 C.ar    1  <0>        -0.0211
     16 C16         6.0217   33.8228   10.9019 C.ar    1  <0>         0.0412
     17 C17         5.4701   34.3780    9.7101 C.ar    1  <0>        -0.0004
     18 C18         7.0102   36.7540   15.5924 C.2     1  <0>         0.1560
     19 C19         6.0962   35.2098   14.3744 C.2     1  <0>         0.1869
     20 C20         4.8890   35.7460    9.6988 C.2     1  <0>        -0.0423
     21 C21         6.0299   31.2709    7.3447 C.2     1  <0>        -0.0341
     22 C22         5.7260   34.2197   13.3290 C.2     1  <0>         0.2814
     23 N1          8.6187   38.6757   16.2187 N.1     1  <0>        -0.1892
     24 N2          5.4655   35.1873   15.5473 N.pl3   1  <0>        -0.2989
     25 N3          7.0506   36.1363   14.3364 N.2     1  <0>        -0.2152
     26 N4          6.4176   30.0271    4.8803 N.4     1  <0>         0.2301
     27 N5          6.1241   34.5679   12.1012 N.am    1  <0>        -0.2786
     28 O1          5.0966   33.2036   13.6359 O.2     1  <0>        -0.2667
     29 H1          6.9285   30.7602    9.7316 H       1  <0>         0.0624
     30 H2          6.9711   32.1001   11.7833 H       1  <0>         0.0636
     31 H3          4.9986   33.9823    7.6224 H       1  <0>         0.0630
     32 H4          5.7459   36.4110   17.3683 H       1  <0>         0.0810
     33 H5          3.5056   39.4307   10.2939 H       1  <0>         0.0268
     34 H6          4.1929   38.3085   11.5194 H       1  <0>         0.0268
     35 H7          2.0230   37.4725   10.7064 H       1  <0>         0.0268
     36 H8          2.6286   37.5224    9.0065 H       1  <0>         0.0268
     37 H9          4.9839   38.6213    8.5839 H       1  <0>         0.0307
     38 H10         6.0011   38.8910   10.0514 H       1  <0>         0.0307
     39 H11         3.4634   35.6917   11.2891 H       1  <0>         0.0313
     40 H12         2.8097   35.2565    9.6532 H       1  <0>         0.0313
     41 H13         7.9511   30.2883    7.2275 H       1  <0>         0.0365
     42 H14         7.9949   32.0838    6.9595 H       1  <0>         0.0365
     43 H15         7.4073   31.8758    4.6955 H       1  <0>         0.0817
     44 H16         8.4759   30.4635    4.9455 H       1  <0>         0.0817
     45 H17         4.3904   30.3106    4.4297 H       1  <0>         0.0861
     46 H18         5.4325   31.7613    4.2364 H       1  <0>         0.0861
     47 H19         6.7312   36.6621    9.3536 H       1  <0>         0.0575
     48 H20         3.8891   31.6435    6.5576 H       1  <0>         0.0628
     49 H21         4.7188   34.5724   15.8008 H       1  <0>         0.1532
     50 H22         6.5712   29.6005    3.9891 H       1  <0>         0.2017
     51 H23         6.3213   29.2983    5.5584 H       1  <0>         0.2017
     52 H24         6.5483   35.4698   12.0195 H       1  <0>         0.1552
@<TRIPOS>BOND
     1     1     2   ar
     2     1    15   ar
     3     2    16   ar
     4     3    15   ar
     5     3    17   ar
     6     4    18    2
     7     4    24    1
     8     5     6    1
     9     5     7    1
    10     6     8    1
    11     7    12    1
    12     8    20    1
    13     9    10    1
    14     9    21    1
    15    10    26    1
    16    11    13    1
    17    11    26    1
    18    12    20    2
    19    13    21    2
    20    14    18    1
    21    14    23    3
    22    15    21    1
    23    16    17   ar
    24    16    27    1
    25    17    20    1
    26    18    25    1
    27    19    22    1
    28    19    24    1
    29    19    25    2
    30    22    27   am
    31    22    28    2
    32     1    29    1
    33     2    30    1
    34     3    31    1
    35     4    32    1
    36     5    33    1
    37     5    34    1
    38     6    35    1
    39     6    36    1
    40     7    37    1
    41     7    38    1
    42     8    39    1
    43     8    40    1
    44     9    41    1
    45     9    42    1
    46    10    43    1
    47    10    44    1
    48    11    45    1
    49    11    46    1
    50    12    47    1
    51    13    48    1
    52    24    49    1
    53    26    50    1
    54    26    51    1
    55    27    52    1
@<TRIPOS>SUBSTRUCTURE
     1 <0>         1 TEMP              0 ****  ****    0 ROOT

