
##########                                Name:        665_401_2H7L
##########                    Molecular_Weight:             361.238
##########                DOCK_Rotatable_Bonds:                   4
##########                       Formal_Charge:        -0.000399873
##########                     HBond_Acceptors:                   4
##########                        HBond_Donors:                   1
##########                         Heavy_Atoms:                  22
##########                            HA_RMSDs:               0.623
##########                            HA_RMSDh:               0.623
##########                            HA_RMSDm:               0.623
##########                          Grid_Score:          -41.485077
##########                     Grid_vdw_energy:          -41.298592
##########                      Grid_es_energy:           -0.186487
##########           Internal_energy_repulsive:           12.494870

@<TRIPOS>MOLECULE
665_401_2H7L
 39 41 1 0 0
SMALL
USER_CHARGES


@<TRIPOS>ATOM
      1 C1         14.2466   33.9441   62.9172 C.ar    1  <0>        -0.0590
      2 C2         13.0853   34.3937   62.1714 C.ar    1  <0>        -0.0404
      3 C3         14.2216   32.6167   63.5121 C.ar    1  <0>        -0.0476
      4 C4         11.9481   32.2400   62.6265 C.ar    1  <0>        -0.0265
      5 C5          7.5843   31.5106   58.9225 C.3     1  <0>        -0.0121
      6 C6          9.6823   34.7512   59.0801 C.3     1  <0>         0.0367
      7 C7          7.6339   34.5235   60.3564 C.3     1  <0>         0.0268
      8 C8          6.9291   30.2966   58.1533 C.2     1  <0>        -0.0820
      9 C9          5.3330   30.2805   58.1203 C.2     1  <0>        -0.0659
     10 C10         4.6384   31.6614   57.9045 C.2     1  <0>        -0.0642
     11 C11         5.4498   32.8605   58.3198 C.2     1  <0>        -0.0635
     12 C12        11.9047   33.5037   62.0184 C.ar    1  <0>         0.0344
     13 C13        13.0521   31.8121   63.3398 C.ar    1  <0>         0.0196
     14 C14         7.0242   32.7580   58.2655 C.3     1  <0>         0.0480
     15 C15         9.1674   34.8954   60.4085 C.3     1  <0>         0.0598
     16 C16         8.6942   34.3296   58.1727 C.2     1  <0>         0.2168
     17 C17         9.7446   33.9412   61.3794 C.2     1  <0>         0.2223
     18 N1         11.0031   34.5167   61.9418 N.am    1  <0>        -0.2852
     19 N2          7.4435   34.1676   58.7622 N.am    1  <0>        -0.2939
     20 O1          8.9920   34.1546   56.9853 O.2     1  <0>        -0.2756
     21 O2          9.2533   32.8850   61.5988 O.2     1  <0>        -0.2751
     22 Br1        12.8131   30.0955   64.0288 Br      1  <0>        -0.0502
     23 H1         15.1112   34.5817   63.0282 H       1  <0>         0.0618
     24 H2         13.0791   35.3777   61.7263 H       1  <0>         0.0636
     25 H3         15.0681   32.2471   64.0718 H       1  <0>         0.0629
     26 H4         11.0955   31.5835   62.5348 H       1  <0>         0.0647
     27 H5          7.3250   31.4818   59.9911 H       1  <0>         0.0328
     28 H6          8.6805   31.4821   58.8360 H       1  <0>         0.0328
     29 H7         10.0722   35.7243   58.7472 H       1  <0>         0.0366
     30 H8         10.4876   34.0019   59.0952 H       1  <0>         0.0366
     31 H9          7.3889   33.6707   61.0066 H       1  <0>         0.0472
     32 H10         6.9912   35.3562   60.6778 H       1  <0>         0.0472
     33 H11         7.5221   29.5277   57.6804 H       1  <0>         0.0573
     34 H12         4.7675   29.3682   58.2402 H       1  <0>         0.0614
     35 H13         3.6465   31.7509   57.4869 H       1  <0>         0.0615
     36 H14         4.9660   33.7688   58.6471 H       1  <0>         0.0590
     37 H15         7.4726   32.5691   57.2790 H       1  <0>         0.0548
     38 H16         9.3991   35.9227   60.7266 H       1  <0>         0.0414
     39 H17        11.1535   35.4679   62.2111 H       1  <0>         0.1548
@<TRIPOS>BOND
     1     1     2   ar
     2     1     3   ar
     3     2    12   ar
     4     3    13   ar
     5     4    12   ar
     6     4    13   ar
     7     5     8    1
     8     5    14    1
     9     6    15    1
    10     6    16    1
    11     7    15    1
    12     7    19    1
    13     8     9    2
    14     9    10    1
    15    10    11    2
    16    11    14    1
    17    12    18    1
    18    13    22    1
    19    14    19    1
    20    15    17    1
    21    16    19   am
    22    16    20    2
    23    17    18   am
    24    17    21    2
    25     1    23    1
    26     2    24    1
    27     3    25    1
    28     4    26    1
    29     5    27    1
    30     5    28    1
    31     6    29    1
    32     6    30    1
    33     7    31    1
    34     7    32    1
    35     8    33    1
    36     9    34    1
    37    10    35    1
    38    11    36    1
    39    14    37    1
    40    15    38    1
    41    18    39    1
@<TRIPOS>SUBSTRUCTURE
     1 <0>         1 TEMP              0 ****  ****    0 ROOT

