Z1159133201 
  MJ210100                      

 19 20  0  0  0  0  0  0  0  0999 V2000
    3.0327    0.1011    0.0000 C   0  0  0  0  0  0  0  0  0  0  0  0
    3.0327   -0.7238    0.0000 O   0  0  0  0  0  0  0  0  0  0  0  0
    2.3183   -1.1363    0.0000 C   0  0  0  0  0  0  0  0  0  0  0  0
    1.6038   -0.7238    0.0000 O   0  0  0  0  0  0  0  0  0  0  0  0
    2.3183   -1.9613    0.0000 C   0  0  0  0  0  0  0  0  0  0  0  0
    2.9857   -2.4462    0.0000 C   0  0  0  0  0  0  0  0  0  0  0  0
    3.7704   -2.1913    0.0000 Cl  0  0  0  0  0  0  0  0  0  0  0  0
    2.7308   -3.2308    0.0000 N   0  0  0  0  0  0  0  0  0  0  0  0
    1.9058   -3.2308    0.0000 C   0  0  0  0  0  0  0  0  0  0  0  0
    1.6509   -2.4462    0.0000 S   0  0  0  0  0  0  0  0  0  0  0  0
    1.4209   -3.8983    0.0000 N   0  0  0  0  0  0  0  0  0  0  0  0
    0.6004   -3.8120    0.0000 C   0  0  0  0  0  0  0  0  0  0  0  0
    1.7564   -4.6520    0.0000 C   0  0  0  0  0  0  0  0  0  0  0  0
    1.2715   -5.3194    0.0000 C   0  0  0  0  0  0  0  0  0  0  0  0
    1.5264   -6.1040    0.0000 C   0  0  0  0  0  0  0  0  0  0  0  0
    2.3111   -6.3590    0.0000 C   0  0  0  0  0  0  0  0  0  0  0  0
    0.8590   -6.5890    0.0000 N   0  0  0  0  0  0  0  0  0  0  0  0
    0.1916   -6.1040    0.0000 C   0  0  0  0  0  0  0  0  0  0  0  0
    0.4465   -5.3194    0.0000 S   0  0  0  0  0  0  0  0  0  0  0  0
  1  2  1  0  0  0  0
  2  3  1  0  0  0  0
  3  4  2  0  0  0  0
  3  5  1  0  0  0  0
  5  6  2  0  0  0  0
  6  7  1  0  0  0  0
  6  8  1  0  0  0  0
  8  9  2  0  0  0  0
  9 10  1  0  0  0  0
  5 10  1  0  0  0  0
  9 11  1  0  0  0  0
 11 12  1  0  0  0  0
 11 13  1  0  0  0  0
 13 14  1  0  0  0  0
 14 15  2  0  0  0  0
 15 16  1  0  0  0  0
 15 17  1  0  0  0  0
 17 18  2  0  0  0  0
 18 19  1  0  0  0  0
 14 19  1  0  0  0  0
M  END
