Z1376027177
  MJ210100                      

 24 26  0  0  0  0  0  0  0  0999 V2000
    3.0671   -4.8291    0.0000 C   0  0  0  0  0  0  0  0  0  0  0  0
    2.3526   -5.2416    0.0000 O   0  0  0  0  0  0  0  0  0  0  0  0
    1.6382   -4.8291    0.0000 C   0  0  0  0  0  0  0  0  0  0  0  0
    0.9237   -5.2416    0.0000 C   0  0  0  0  0  0  0  0  0  0  0  0
    0.2092   -4.8291    0.0000 C   0  0  0  0  0  0  0  0  0  0  0  0
    0.2092   -4.0041    0.0000 C   0  0  0  0  0  0  0  0  0  0  0  0
   -0.5052   -3.5916    0.0000 C   0  0  0  0  0  0  0  0  0  0  0  0
   -0.5052   -2.7666    0.0000 N   0  0  0  0  0  0  0  0  0  0  0  0
   -1.2196   -2.3541    0.0000 C   0  0  0  0  0  0  0  0  0  0  0  0
   -1.9341   -2.7666    0.0000 O   0  0  0  0  0  0  0  0  0  0  0  0
   -1.2196   -1.5291    0.0000 C   0  0  0  0  0  0  0  0  0  0  0  0
   -1.8030   -0.9458    0.0000 C   0  0  0  0  0  0  0  0  0  0  0  0
   -1.2196   -0.3624    0.0000 C   0  0  0  0  0  0  0  0  0  0  0  0
   -1.8030    0.2209    0.0000 F   0  0  0  0  0  0  0  0  0  0  0  0
   -0.6363    0.2209    0.0000 F   0  0  0  0  0  0  0  0  0  0  0  0
   -0.6363   -0.9458    0.0000 C   0  0  0  0  0  0  0  0  0  0  0  0
    0.2092   -2.3541    0.0000 C   0  0  0  0  0  0  0  0  0  0  0  0
    0.2092   -1.5291    0.0000 C   0  0  0  0  0  0  0  0  0  0  0  0
    0.9237   -1.1166    0.0000 C   0  0  0  0  0  0  0  0  0  0  0  0
    1.6382   -1.5291    0.0000 N   0  0  0  0  0  0  0  0  0  0  0  0
    1.6382   -2.3541    0.0000 C   0  0  0  0  0  0  0  0  0  0  0  0
    0.9237   -2.7666    0.0000 C   0  0  0  0  0  0  0  0  0  0  0  0
    0.9237   -3.5916    0.0000 C   0  0  0  0  0  0  0  0  0  0  0  0
    1.6382   -4.0041    0.0000 C   0  0  0  0  0  0  0  0  0  0  0  0
  1  2  1  0  0  0  0
  2  3  1  0  0  0  0
  3  4  2  0  0  0  0
  4  5  1  0  0  0  0
  5  6  2  0  0  0  0
  6  7  1  0  0  0  0
  7  8  1  0  0  0  0
  8  9  1  0  0  0  0
  9 10  2  0  0  0  0
  9 11  1  0  0  0  0
 11 12  1  0  0  0  0
 12 13  1  0  0  0  0
 13 14  1  0  0  0  0
 13 15  1  0  0  0  0
 13 16  1  0  0  0  0
 11 16  1  0  0  0  0
  8 17  1  0  0  0  0
 17 18  2  0  0  0  0
 18 19  1  0  0  0  0
 19 20  2  0  0  0  0
 20 21  1  0  0  0  0
 21 22  2  0  0  0  0
 17 22  1  0  0  0  0
  6 23  1  0  0  0  0
 23 24  2  0  0  0  0
  3 24  1  0  0  0  0
M  END
