Z1405137567
  MJ210100                      

 16 17  0  0  0  0  0  0  0  0999 V2000
    0.7144   -1.2375    0.0000 C   0  0  0  0  0  0  0  0  0  0  0  0
    1.4289   -1.6500    0.0000 O   0  0  0  0  0  0  0  0  0  0  0  0
    1.4289   -2.4750    0.0000 C   0  0  0  0  0  0  0  0  0  0  0  0
    2.1433   -2.8875    0.0000 C   0  0  0  0  0  0  0  0  0  0  0  0
    2.1433   -3.7125    0.0000 C   0  0  0  0  0  0  0  0  0  0  0  0
    1.4289   -4.1250    0.0000 C   0  0  0  0  0  0  0  0  0  0  0  0
    1.4289   -4.9500    0.0000 C   0  0  0  0  0  0  0  0  0  0  0  0
    2.1433   -5.3625    0.0000 N   0  0  0  0  0  0  0  0  0  0  0  0
    2.1433   -6.1875    0.0000 C   0  0  0  0  0  0  0  0  0  0  0  0
    2.8578   -6.6000    0.0000 C   0  0  0  0  0  0  0  0  0  0  0  0
    2.8578   -7.4250    0.0000 C   0  0  0  0  0  0  0  0  0  0  0  0
    2.1433   -7.8375    0.0000 C   0  0  0  0  0  0  0  0  0  0  0  0
    1.4289   -7.4250    0.0000 N   0  0  0  0  0  0  0  0  0  0  0  0
    1.4289   -6.6000    0.0000 C   0  0  0  0  0  0  0  0  0  0  0  0
    0.7144   -3.7125    0.0000 C   0  0  0  0  0  0  0  0  0  0  0  0
    0.7144   -2.8875    0.0000 C   0  0  0  0  0  0  0  0  0  0  0  0
  1  2  1  0  0  0  0
  2  3  1  0  0  0  0
  3  4  2  0  0  0  0
  4  5  1  0  0  0  0
  5  6  2  0  0  0  0
  6  7  1  0  0  0  0
  7  8  1  0  0  0  0
  8  9  1  0  0  0  0
  9 10  2  0  0  0  0
 10 11  1  0  0  0  0
 11 12  2  0  0  0  0
 12 13  1  0  0  0  0
 13 14  2  0  0  0  0
  9 14  1  0  0  0  0
  6 15  1  0  0  0  0
 15 16  2  0  0  0  0
  3 16  1  0  0  0  0
M  END
