Z1480758141 
  MJ210100                      

 21 23  0  0  0  0  0  0  0  0999 V2000
   -2.2501    6.8276    0.0000 C   0  0  0  0  0  0  0  0  0  0  0  0
   -1.5356    7.2401    0.0000 O   0  0  0  0  0  0  0  0  0  0  0  0
   -0.8211    6.8276    0.0000 C   0  0  0  0  0  0  0  0  0  0  0  0
   -0.1067    7.2401    0.0000 C   0  0  0  0  0  0  0  0  0  0  0  0
    0.6077    6.8276    0.0000 C   0  0  0  0  0  0  0  0  0  0  0  0
    0.6077    6.0026    0.0000 C   0  0  0  0  0  0  0  0  0  0  0  0
    1.3222    5.5901    0.0000 C   0  0  0  0  0  0  0  0  0  0  0  0
    1.3222    4.7651    0.0000 N   0  0  0  0  0  0  0  0  0  0  0  0
    2.0367    4.3526    0.0000 C   0  0  0  0  0  0  0  0  0  0  0  0
    2.7511    4.7651    0.0000 C   0  0  0  0  0  0  0  0  0  0  0  0
    3.4656    4.3526    0.0000 C   0  0  0  0  0  0  0  0  0  0  0  0
    3.4656    3.5276    0.0000 C   0  0  0  0  0  0  0  0  0  0  0  0
    2.7511    3.1151    0.0000 C   0  0  0  0  0  0  0  0  0  0  0  0
    2.0367    3.5276    0.0000 C   0  0  0  0  0  0  0  0  0  0  0  0
    2.7511    2.2901    0.0000 C   0  0  0  0  0  0  0  0  0  0  0  0
    3.4186    1.8052    0.0000 N   0  0  0  0  0  0  0  0  0  0  0  0
    3.1636    1.0206    0.0000 N   0  0  0  0  0  0  0  0  0  0  0  0
    2.3386    1.0206    0.0000 C   0  0  0  0  0  0  0  0  0  0  0  0
    2.0837    1.8052    0.0000 N   0  0  0  0  0  0  0  0  0  0  0  0
   -0.1067    5.5901    0.0000 C   0  0  0  0  0  0  0  0  0  0  0  0
   -0.8211    6.0026    0.0000 C   0  0  0  0  0  0  0  0  0  0  0  0
  1  2  1  0  0  0  0
  2  3  1  0  0  0  0
  3  4  2  0  0  0  0
  4  5  1  0  0  0  0
  5  6  2  0  0  0  0
  6  7  1  0  0  0  0
  7  8  1  0  0  0  0
  8  9  1  0  0  0  0
  9 10  2  0  0  0  0
 10 11  1  0  0  0  0
 11 12  2  0  0  0  0
 12 13  1  0  0  0  0
 13 14  2  0  0  0  0
  9 14  1  0  0  0  0
 13 15  1  0  0  0  0
 15 16  2  0  0  0  0
 16 17  1  0  0  0  0
 17 18  2  0  0  0  0
 18 19  1  0  0  0  0
 15 19  1  0  0  0  0
  6 20  1  0  0  0  0
 20 21  2  0  0  0  0
  3 21  1  0  0  0  0
M  END
