Z1480757072
  MJ210100                      

 21 23  0  0  0  0  0  0  0  0999 V2000
    3.4656   -2.9491    0.0000 C   0  0  0  0  0  0  0  0  0  0  0  0
    3.4656   -3.7741    0.0000 C   0  0  0  0  0  0  0  0  0  0  0  0
    4.1330   -4.2590    0.0000 N   0  0  0  0  0  0  0  0  0  0  0  0
    3.8781   -5.0436    0.0000 C   0  0  0  0  0  0  0  0  0  0  0  0
    3.0531   -5.0436    0.0000 N   0  0  0  0  0  0  0  0  0  0  0  0
    2.7981   -4.2590    0.0000 N   0  0  0  0  0  0  0  0  0  0  0  0
    4.3630   -5.7110    0.0000 C   0  0  0  0  0  0  0  0  0  0  0  0
    5.1835   -5.6248    0.0000 C   0  0  0  0  0  0  0  0  0  0  0  0
    5.6685   -6.2922    0.0000 C   0  0  0  0  0  0  0  0  0  0  0  0
    5.3329   -7.0459    0.0000 C   0  0  0  0  0  0  0  0  0  0  0  0
    4.5124   -7.1321    0.0000 C   0  0  0  0  0  0  0  0  0  0  0  0
    4.1768   -7.8858    0.0000 N   0  0  0  0  0  0  0  0  0  0  0  0
    4.6617   -8.5533    0.0000 C   0  0  0  0  0  0  0  0  0  0  0  0
    4.3262   -9.3070    0.0000 C   0  0  0  0  0  0  0  0  0  0  0  0
    4.8111   -9.9744    0.0000 C   0  0  0  0  0  0  0  0  0  0  0  0
    4.4756  -10.7281    0.0000 C   0  0  0  0  0  0  0  0  0  0  0  0
    3.6551  -10.8143    0.0000 C   0  0  0  0  0  0  0  0  0  0  0  0
    3.1701  -10.1469    0.0000 C   0  0  0  0  0  0  0  0  0  0  0  0
    3.5057   -9.3932    0.0000 C   0  0  0  0  0  0  0  0  0  0  0  0
    3.0208   -8.7257    0.0000 Cl  0  0  0  0  0  0  0  0  0  0  0  0
    4.0275   -6.4647    0.0000 C   0  0  0  0  0  0  0  0  0  0  0  0
  1  2  1  0  0  0  0
  2  3  2  0  0  0  0
  3  4  1  0  0  0  0
  4  5  2  0  0  0  0
  5  6  1  0  0  0  0
  2  6  1  0  0  0  0
  4  7  1  0  0  0  0
  7  8  2  0  0  0  0
  8  9  1  0  0  0  0
  9 10  2  0  0  0  0
 10 11  1  0  0  0  0
 11 12  1  0  0  0  0
 12 13  1  0  0  0  0
 13 14  1  0  0  0  0
 14 15  2  0  0  0  0
 15 16  1  0  0  0  0
 16 17  2  0  0  0  0
 17 18  1  0  0  0  0
 18 19  2  0  0  0  0
 14 19  1  0  0  0  0
 19 20  1  0  0  0  0
 11 21  2  0  0  0  0
  7 21  1  0  0  0  0
M  END
