Z1576575036 
  MJ210100                      

 20 21  0  0  0  0  0  0  0  0999 V2000
    2.1433   -0.4125    0.0000 C   0  0  0  0  0  0  0  0  0  0  0  0
    2.1433   -1.2375    0.0000 O   0  0  0  0  0  0  0  0  0  0  0  0
    1.4289   -1.6500    0.0000 C   0  0  0  0  0  0  0  0  0  0  0  0
    0.7144   -1.2375    0.0000 O   0  0  0  0  0  0  0  0  0  0  0  0
    1.4289   -2.4750    0.0000 C   0  0  0  0  0  0  0  0  0  0  0  0
    2.0963   -2.9599    0.0000 C   0  0  0  0  0  0  0  0  0  0  0  0
    2.8810   -2.7049    0.0000 Cl  0  0  0  0  0  0  0  0  0  0  0  0
    1.8414   -3.7445    0.0000 N   0  0  0  0  0  0  0  0  0  0  0  0
    1.0164   -3.7445    0.0000 C   0  0  0  0  0  0  0  0  0  0  0  0
    0.7615   -2.9599    0.0000 S   0  0  0  0  0  0  0  0  0  0  0  0
    0.5315   -4.4119    0.0000 N   0  0  0  0  0  0  0  0  0  0  0  0
   -0.2889   -4.3257    0.0000 C   0  0  0  0  0  0  0  0  0  0  0  0
    0.8670   -5.1656    0.0000 C   0  0  0  0  0  0  0  0  0  0  0  0
    0.3821   -5.8330    0.0000 C   0  0  0  0  0  0  0  0  0  0  0  0
    0.7176   -6.5867    0.0000 C   0  0  0  0  0  0  0  0  0  0  0  0
    0.2327   -7.2542    0.0000 C   0  0  0  0  0  0  0  0  0  0  0  0
   -0.5876   -7.1679    0.0000 C   0  0  0  0  0  0  0  0  0  0  0  0
   -1.0726   -7.8354    0.0000 Cl  0  0  0  0  0  0  0  0  0  0  0  0
   -0.9232   -6.4143    0.0000 N   0  0  0  0  0  0  0  0  0  0  0  0
   -0.4383   -5.7468    0.0000 C   0  0  0  0  0  0  0  0  0  0  0  0
  1  2  1  0  0  0  0
  2  3  1  0  0  0  0
  3  4  2  0  0  0  0
  3  5  1  0  0  0  0
  5  6  2  0  0  0  0
  6  7  1  0  0  0  0
  6  8  1  0  0  0  0
  8  9  2  0  0  0  0
  9 10  1  0  0  0  0
  5 10  1  0  0  0  0
  9 11  1  0  0  0  0
 11 12  1  0  0  0  0
 11 13  1  0  0  0  0
 13 14  1  0  0  0  0
 14 15  2  0  0  0  0
 15 16  1  0  0  0  0
 16 17  2  0  0  0  0
 17 18  1  0  0  0  0
 17 19  1  0  0  0  0
 19 20  2  0  0  0  0
 14 20  1  0  0  0  0
M  END
