Z1570930696
  MJ210100                      

 19 20  0  0  0  0  0  0  0  0999 V2000
    0.6077    8.4776    0.0000 C   0  0  0  0  0  0  0  0  0  0  0  0
    1.3222    8.0651    0.0000 O   0  0  0  0  0  0  0  0  0  0  0  0
    1.3222    7.2401    0.0000 C   0  0  0  0  0  0  0  0  0  0  0  0
    0.6077    6.8276    0.0000 O   0  0  0  0  0  0  0  0  0  0  0  0
    2.0367    6.8276    0.0000 C   0  0  0  0  0  0  0  0  0  0  0  0
    2.7511    7.2401    0.0000 C   0  0  0  0  0  0  0  0  0  0  0  0
    3.4656    6.8276    0.0000 C   0  0  0  0  0  0  0  0  0  0  0  0
    3.4656    6.0026    0.0000 C   0  0  0  0  0  0  0  0  0  0  0  0
    2.7511    5.5901    0.0000 C   0  0  0  0  0  0  0  0  0  0  0  0
    2.0367    6.0026    0.0000 N   0  0  0  0  0  0  0  0  0  0  0  0
    2.7511    4.7651    0.0000 N   0  0  0  0  0  0  0  0  0  0  0  0
    2.0367    4.3526    0.0000 C   0  0  0  0  0  0  0  0  0  0  0  0
    3.4656    4.3526    0.0000 C   0  0  0  0  0  0  0  0  0  0  0  0
    3.4656    3.5276    0.0000 C   0  0  0  0  0  0  0  0  0  0  0  0
    4.1330    3.0427    0.0000 C   0  0  0  0  0  0  0  0  0  0  0  0
    3.8781    2.2581    0.0000 C   0  0  0  0  0  0  0  0  0  0  0  0
    3.0531    2.2581    0.0000 C   0  0  0  0  0  0  0  0  0  0  0  0
    2.7981    3.0427    0.0000 C   0  0  0  0  0  0  0  0  0  0  0  0
    2.0135    3.2976    0.0000 O   0  0  0  0  0  0  0  0  0  0  0  0
  1  2  1  0  0  0  0
  2  3  1  0  0  0  0
  3  4  2  0  0  0  0
  3  5  1  0  0  0  0
  5  6  2  0  0  0  0
  6  7  1  0  0  0  0
  7  8  2  0  0  0  0
  8  9  1  0  0  0  0
  9 10  2  0  0  0  0
  5 10  1  0  0  0  0
  9 11  1  0  0  0  0
 11 12  1  0  0  0  0
 11 13  1  0  0  0  0
 13 14  1  0  0  0  0
 14 15  1  0  0  0  0
 15 16  1  0  0  0  0
 16 17  1  0  0  0  0
 17 18  1  0  0  0  0
 14 18  1  0  0  0  0
 18 19  1  0  0  0  0
M  END
