Z1570866145
  MJ210100                      

 20 21  0  0  0  0  0  0  0  0999 V2000
    8.6582   -2.1440    0.0000 C   0  0  0  0  0  0  0  0  0  0  0  0
    7.8377   -2.2303    0.0000 O   0  0  0  0  0  0  0  0  0  0  0  0
    7.3527   -1.5628    0.0000 C   0  0  0  0  0  0  0  0  0  0  0  0
    7.6883   -0.8091    0.0000 O   0  0  0  0  0  0  0  0  0  0  0  0
    6.5322   -1.6491    0.0000 C   0  0  0  0  0  0  0  0  0  0  0  0
    6.1967   -2.4027    0.0000 C   0  0  0  0  0  0  0  0  0  0  0  0
    5.3762   -2.4890    0.0000 C   0  0  0  0  0  0  0  0  0  0  0  0
    4.8913   -1.8215    0.0000 C   0  0  0  0  0  0  0  0  0  0  0  0
    5.2269   -1.0678    0.0000 C   0  0  0  0  0  0  0  0  0  0  0  0
    6.0474   -0.9816    0.0000 N   0  0  0  0  0  0  0  0  0  0  0  0
    4.7419   -0.4005    0.0000 N   0  0  0  0  0  0  0  0  0  0  0  0
    3.9214   -0.4866    0.0000 C   0  0  0  0  0  0  0  0  0  0  0  0
    5.0775    0.3531    0.0000 C   0  0  0  0  0  0  0  0  0  0  0  0
    4.5926    1.0206    0.0000 C   0  0  0  0  0  0  0  0  0  0  0  0
    3.7676    1.0206    0.0000 C   0  0  0  0  0  0  0  0  0  0  0  0
    3.5126    1.8052    0.0000 C   0  0  0  0  0  0  0  0  0  0  0  0
    4.1801    2.2901    0.0000 S   0  0  0  0  0  0  0  0  0  0  0  0
    3.6280    2.9032    0.0000 O   0  0  0  0  0  0  0  0  0  0  0  0
    4.7321    2.9032    0.0000 O   0  0  0  0  0  0  0  0  0  0  0  0
    4.8475    1.8052    0.0000 C   0  0  0  0  0  0  0  0  0  0  0  0
  1  2  1  0  0  0  0
  2  3  1  0  0  0  0
  3  4  2  0  0  0  0
  3  5  1  0  0  0  0
  5  6  2  0  0  0  0
  6  7  1  0  0  0  0
  7  8  2  0  0  0  0
  8  9  1  0  0  0  0
  9 10  2  0  0  0  0
  5 10  1  0  0  0  0
  9 11  1  0  0  0  0
 11 12  1  0  0  0  0
 11 13  1  0  0  0  0
 13 14  1  0  0  0  0
 14 15  1  0  0  0  0
 15 16  1  0  0  0  0
 16 17  1  0  0  0  0
 17 18  2  0  0  0  0
 17 19  2  0  0  0  0
 17 20  1  0  0  0  0
 14 20  1  0  0  0  0
M  END
