Z1711618470 
  MJ210100                      

 22 24  0  0  1  0  0  0  0  0999 V2000
    6.1282    4.0144    0.0000 C   0  0  0  0  0  0  0  0  0  0  0  0
    6.1282    3.1894    0.0000 O   0  0  0  0  0  0  0  0  0  0  0  0
    5.4138    2.7769    0.0000 C   0  0  0  0  0  0  0  0  0  0  0  0
    5.4138    1.9519    0.0000 C   0  0  0  0  0  0  0  0  0  0  0  0
    4.6993    1.5394    0.0000 C   0  0  0  0  0  0  0  0  0  0  0  0
    3.9848    1.9519    0.0000 C   0  0  0  0  0  0  0  0  0  0  0  0
    3.2703    1.5394    0.0000 C   0  0  0  0  0  0  0  0  0  0  0  0
    3.2703    0.7144    0.0000 N   0  0  0  0  0  0  0  0  0  0  0  0
    2.5558    0.3019    0.0000 C   0  0  0  0  0  0  0  0  0  0  0  0
    1.8414    0.7144    0.0000 O   0  0  0  0  0  0  0  0  0  0  0  0
    2.5558   -0.5230    0.0000 C   0  0  0  0  0  0  0  0  0  0  0  0
    2.9683   -1.2375    0.0000 C   0  0  0  0  0  0  0  0  0  0  0  0
    2.1433   -1.2375    0.0000 C   0  0  0  0  0  0  0  0  0  0  0  0
    1.4289   -1.6500    0.0000 C   0  0  0  0  0  0  0  0  0  0  0  0
    3.9848    0.3019    0.0000 C   0  0  0  0  0  0  0  0  0  0  0  0
    4.6993    0.7144    0.0000 C   0  0  0  0  0  0  0  0  0  0  0  0
    5.4138    0.3019    0.0000 C   0  0  0  0  0  0  0  0  0  0  0  0
    5.4138   -0.5230    0.0000 N   0  0  0  0  0  0  0  0  0  0  0  0
    4.6993   -0.9355    0.0000 C   0  0  0  0  0  0  0  0  0  0  0  0
    3.9848   -0.5230    0.0000 C   0  0  0  0  0  0  0  0  0  0  0  0
    3.9848    2.7769    0.0000 C   0  0  0  0  0  0  0  0  0  0  0  0
    4.6993    3.1894    0.0000 C   0  0  0  0  0  0  0  0  0  0  0  0
  1  2  1  0  0  0  0
  2  3  1  0  0  0  0
  3  4  2  0  0  0  0
  4  5  1  0  0  0  0
  5  6  2  0  0  0  0
  6  7  1  0  0  0  0
  7  8  1  0  0  0  0
  8  9  1  0  0  0  0
  9 10  2  0  0  0  0
 11  9  1  1  0  0  0
 11 12  1  0  0  0  0
 13 12  1  0  0  0  0
 11 13  1  0  0  0  0
 13 14  1  6  0  0  0
  8 15  1  0  0  0  0
 15 16  2  0  0  0  0
 16 17  1  0  0  0  0
 17 18  2  0  0  0  0
 18 19  1  0  0  0  0
 19 20  2  0  0  0  0
 15 20  1  0  0  0  0
  6 21  1  0  0  0  0
 21 22  2  0  0  0  0
  3 22  1  0  0  0  0
M  END
