Z1747659963
  MJ210100                      

 25 28  0  0  0  0  0  0  0  0999 V2000
   -0.7144    1.2375    0.0000 C   0  0  0  0  0  0  0  0  0  0  0  0
    0.0000    0.8250    0.0000 O   0  0  0  0  0  0  0  0  0  0  0  0
    0.0000    0.0000    0.0000 C   0  0  0  0  0  0  0  0  0  0  0  0
   -0.7144   -0.4125    0.0000 C   0  0  0  0  0  0  0  0  0  0  0  0
   -0.7144   -1.2375    0.0000 C   0  0  0  0  0  0  0  0  0  0  0  0
    0.0000   -1.6500    0.0000 C   0  0  0  0  0  0  0  0  0  0  0  0
    0.7144   -1.2375    0.0000 C   0  0  0  0  0  0  0  0  0  0  0  0
    0.7144   -0.4125    0.0000 C   0  0  0  0  0  0  0  0  0  0  0  0
    1.4289    0.0000    0.0000 C   0  0  0  0  0  0  0  0  0  0  0  0
    2.1433   -0.4125    0.0000 C   0  0  0  0  0  0  0  0  0  0  0  0
    2.1433   -1.2375    0.0000 N   0  0  0  0  0  0  0  0  0  0  0  0
    1.4289   -1.6500    0.0000 C   0  0  0  0  0  0  0  0  0  0  0  0
    2.8578   -1.6500    0.0000 C   0  0  0  0  0  0  0  0  0  0  0  0
    2.8578   -2.4750    0.0000 O   0  0  0  0  0  0  0  0  0  0  0  0
    3.5723   -1.2375    0.0000 C   0  0  0  0  0  0  0  0  0  0  0  0
    3.6586   -0.4170    0.0000 C   0  0  0  0  0  0  0  0  0  0  0  0
    4.4655   -0.2455    0.0000 N   0  0  0  0  0  0  0  0  0  0  0  0
    4.8780   -0.9599    0.0000 N   0  0  0  0  0  0  0  0  0  0  0  0
    4.3260   -1.5730    0.0000 C   0  0  0  0  0  0  0  0  0  0  0  0
    4.4975   -2.3800    0.0000 C   0  0  0  0  0  0  0  0  0  0  0  0
    5.2512   -2.7155    0.0000 C   0  0  0  0  0  0  0  0  0  0  0  0
    5.1649   -3.5360    0.0000 C   0  0  0  0  0  0  0  0  0  0  0  0
    4.3580   -3.7075    0.0000 C   0  0  0  0  0  0  0  0  0  0  0  0
    4.0224   -4.4612    0.0000 Cl  0  0  0  0  0  0  0  0  0  0  0  0
    3.9455   -2.9931    0.0000 S   0  0  0  0  0  0  0  0  0  0  0  0
  1  2  1  0  0  0  0
  2  3  1  0  0  0  0
  3  4  2  0  0  0  0
  4  5  1  0  0  0  0
  5  6  2  0  0  0  0
  6  7  1  0  0  0  0
  7  8  2  0  0  0  0
  3  8  1  0  0  0  0
  8  9  1  0  0  0  0
  9 10  1  0  0  0  0
 10 11  1  0  0  0  0
 11 12  1  0  0  0  0
  7 12  1  0  0  0  0
 11 13  1  0  0  0  0
 13 14  2  0  0  0  0
 13 15  1  0  0  0  0
 15 16  2  0  0  0  0
 16 17  1  0  0  0  0
 17 18  1  0  0  0  0
 18 19  2  0  0  0  0
 15 19  1  0  0  0  0
 19 20  1  0  0  0  0
 20 21  2  0  0  0  0
 21 22  1  0  0  0  0
 22 23  2  0  0  0  0
 23 24  1  0  0  0  0
 23 25  1  0  0  0  0
 20 25  1  0  0  0  0
M  END
