Z1848085028
  MJ210100                      

 25 27  0  0  0  0  0  0  0  0999 V2000
   -5.6090    3.1151    0.0000 C   0  0  0  0  0  0  0  0  0  0  0  0
   -4.8946    3.5276    0.0000 O   0  0  0  0  0  0  0  0  0  0  0  0
   -4.1801    3.1151    0.0000 C   0  0  0  0  0  0  0  0  0  0  0  0
   -3.4656    3.5276    0.0000 C   0  0  0  0  0  0  0  0  0  0  0  0
   -2.7511    3.1151    0.0000 C   0  0  0  0  0  0  0  0  0  0  0  0
   -2.7511    2.2901    0.0000 C   0  0  0  0  0  0  0  0  0  0  0  0
   -2.0367    1.8776    0.0000 C   0  0  0  0  0  0  0  0  0  0  0  0
   -2.0367    1.0526    0.0000 N   0  0  0  0  0  0  0  0  0  0  0  0
   -1.3222    0.6401    0.0000 C   0  0  0  0  0  0  0  0  0  0  0  0
   -0.6077    1.0526    0.0000 O   0  0  0  0  0  0  0  0  0  0  0  0
   -1.3222   -0.1848    0.0000 C   0  0  0  0  0  0  0  0  0  0  0  0
   -0.6548   -0.6697    0.0000 C   0  0  0  0  0  0  0  0  0  0  0  0
    0.1298   -0.4148    0.0000 Cl  0  0  0  0  0  0  0  0  0  0  0  0
   -0.9097   -1.4543    0.0000 C   0  0  0  0  0  0  0  0  0  0  0  0
   -0.4248   -2.1218    0.0000 C   0  0  0  0  0  0  0  0  0  0  0  0
   -1.7347   -1.4543    0.0000 C   0  0  0  0  0  0  0  0  0  0  0  0
   -1.9896   -0.6697    0.0000 S   0  0  0  0  0  0  0  0  0  0  0  0
   -2.7511    0.6401    0.0000 C   0  0  0  0  0  0  0  0  0  0  0  0
   -2.7511   -0.1848    0.0000 C   0  0  0  0  0  0  0  0  0  0  0  0
   -3.4656   -0.5973    0.0000 C   0  0  0  0  0  0  0  0  0  0  0  0
   -4.1801   -0.1848    0.0000 N   0  0  0  0  0  0  0  0  0  0  0  0
   -4.1801    0.6401    0.0000 C   0  0  0  0  0  0  0  0  0  0  0  0
   -3.4656    1.0526    0.0000 C   0  0  0  0  0  0  0  0  0  0  0  0
   -3.4656    1.8776    0.0000 C   0  0  0  0  0  0  0  0  0  0  0  0
   -4.1801    2.2901    0.0000 C   0  0  0  0  0  0  0  0  0  0  0  0
  1  2  1  0  0  0  0
  2  3  1  0  0  0  0
  3  4  2  0  0  0  0
  4  5  1  0  0  0  0
  5  6  2  0  0  0  0
  6  7  1  0  0  0  0
  7  8  1  0  0  0  0
  8  9  1  0  0  0  0
  9 10  2  0  0  0  0
  9 11  1  0  0  0  0
 11 12  2  0  0  0  0
 12 13  1  0  0  0  0
 12 14  1  0  0  0  0
 14 15  1  0  0  0  0
 14 16  2  0  0  0  0
 16 17  1  0  0  0  0
 11 17  1  0  0  0  0
  8 18  1  0  0  0  0
 18 19  2  0  0  0  0
 19 20  1  0  0  0  0
 20 21  2  0  0  0  0
 21 22  1  0  0  0  0
 22 23  2  0  0  0  0
 18 23  1  0  0  0  0
  6 24  1  0  0  0  0
 24 25  2  0  0  0  0
  3 25  1  0  0  0  0
M  END
