Z1918345355
  MJ210100                      

 22 24  0  0  0  0  0  0  0  0999 V2000
    2.0367    1.1758    0.0000 C   0  0  0  0  0  0  0  0  0  0  0  0
    2.7511    0.7633    0.0000 O   0  0  0  0  0  0  0  0  0  0  0  0
    3.4656    1.1758    0.0000 C   0  0  0  0  0  0  0  0  0  0  0  0
    3.4656    2.0008    0.0000 C   0  0  0  0  0  0  0  0  0  0  0  0
    2.7511    2.4133    0.0000 F   0  0  0  0  0  0  0  0  0  0  0  0
    4.1801    2.4133    0.0000 C   0  0  0  0  0  0  0  0  0  0  0  0
    4.8946    2.0008    0.0000 C   0  0  0  0  0  0  0  0  0  0  0  0
    5.6090    2.4133    0.0000 F   0  0  0  0  0  0  0  0  0  0  0  0
    4.8946    1.1758    0.0000 C   0  0  0  0  0  0  0  0  0  0  0  0
    4.1801    0.7633    0.0000 C   0  0  0  0  0  0  0  0  0  0  0  0
    4.1801   -0.0616    0.0000 N   0  0  0  0  0  0  0  0  0  0  0  0
    3.4656   -0.4741    0.0000 C   0  0  0  0  0  0  0  0  0  0  0  0
    3.4656   -1.2991    0.0000 C   0  0  0  0  0  0  0  0  0  0  0  0
    4.1330   -1.7840    0.0000 C   0  0  0  0  0  0  0  0  0  0  0  0
    3.8781   -2.5686    0.0000 C   0  0  0  0  0  0  0  0  0  0  0  0
    3.0531   -2.5686    0.0000 C   0  0  0  0  0  0  0  0  0  0  0  0
    2.7981   -1.7840    0.0000 O   0  0  0  0  0  0  0  0  0  0  0  0
    2.5682   -3.2360    0.0000 C   0  0  0  0  0  0  0  0  0  0  0  0
    2.8231   -4.0206    0.0000 C   0  0  0  0  0  0  0  0  0  0  0  0
    2.1557   -4.5056    0.0000 C   0  0  0  0  0  0  0  0  0  0  0  0
    1.4882   -4.0206    0.0000 N   0  0  0  0  0  0  0  0  0  0  0  0
    1.7432   -3.2360    0.0000 N   0  0  0  0  0  0  0  0  0  0  0  0
  1  2  1  0  0  0  0
  2  3  1  0  0  0  0
  3  4  2  0  0  0  0
  4  5  1  0  0  0  0
  4  6  1  0  0  0  0
  6  7  2  0  0  0  0
  7  8  1  0  0  0  0
  7  9  1  0  0  0  0
  9 10  2  0  0  0  0
  3 10  1  0  0  0  0
 10 11  1  0  0  0  0
 11 12  1  0  0  0  0
 12 13  1  0  0  0  0
 13 14  2  0  0  0  0
 14 15  1  0  0  0  0
 15 16  2  0  0  0  0
 16 17  1  0  0  0  0
 13 17  1  0  0  0  0
 16 18  1  0  0  0  0
 18 19  2  0  0  0  0
 19 20  1  0  0  0  0
 20 21  2  0  0  0  0
 21 22  1  0  0  0  0
 18 22  1  0  0  0  0
M  END
