Z1918348063
  MJ210100                      

 23 26  0  0  0  0  0  0  0  0999 V2000
    0.8837   -2.1499    0.0000 C   0  0  0  0  0  0  0  0  0  0  0  0
    1.1387   -1.3653    0.0000 N   0  0  0  0  0  0  0  0  0  0  0  0
    0.6537   -0.6979    0.0000 C   0  0  0  0  0  0  0  0  0  0  0  0
   -0.1712   -0.6979    0.0000 O   0  0  0  0  0  0  0  0  0  0  0  0
    1.1387   -0.0304    0.0000 O   0  0  0  0  0  0  0  0  0  0  0  0
    1.9233   -0.2854    0.0000 C   0  0  0  0  0  0  0  0  0  0  0  0
    2.6378    0.1270    0.0000 C   0  0  0  0  0  0  0  0  0  0  0  0
    2.6378    0.9520    0.0000 N   0  0  0  0  0  0  0  0  0  0  0  0
    3.3522    1.3645    0.0000 C   0  0  0  0  0  0  0  0  0  0  0  0
    3.3522    2.1895    0.0000 C   0  0  0  0  0  0  0  0  0  0  0  0
    2.6848    2.6745    0.0000 C   0  0  0  0  0  0  0  0  0  0  0  0
    2.9397    3.4591    0.0000 C   0  0  0  0  0  0  0  0  0  0  0  0
    3.7647    3.4591    0.0000 C   0  0  0  0  0  0  0  0  0  0  0  0
    4.0197    2.6745    0.0000 O   0  0  0  0  0  0  0  0  0  0  0  0
    4.2497    4.1265    0.0000 C   0  0  0  0  0  0  0  0  0  0  0  0
    3.9947    4.9111    0.0000 C   0  0  0  0  0  0  0  0  0  0  0  0
    4.6622    5.3960    0.0000 C   0  0  0  0  0  0  0  0  0  0  0  0
    5.3296    4.9111    0.0000 N   0  0  0  0  0  0  0  0  0  0  0  0
    5.0747    4.1265    0.0000 N   0  0  0  0  0  0  0  0  0  0  0  0
    3.3522   -0.2854    0.0000 C   0  0  0  0  0  0  0  0  0  0  0  0
    3.3522   -1.1104    0.0000 C   0  0  0  0  0  0  0  0  0  0  0  0
    2.6378   -1.5229    0.0000 C   0  0  0  0  0  0  0  0  0  0  0  0
    1.9233   -1.1104    0.0000 C   0  0  0  0  0  0  0  0  0  0  0  0
  1  2  1  0  0  0  0
  2  3  1  0  0  0  0
  3  4  2  0  0  0  0
  3  5  1  0  0  0  0
  5  6  1  0  0  0  0
  6  7  2  0  0  0  0
  7  8  1  0  0  0  0
  8  9  1  0  0  0  0
  9 10  1  0  0  0  0
 10 11  2  0  0  0  0
 11 12  1  0  0  0  0
 12 13  2  0  0  0  0
 13 14  1  0  0  0  0
 10 14  1  0  0  0  0
 13 15  1  0  0  0  0
 15 16  2  0  0  0  0
 16 17  1  0  0  0  0
 17 18  2  0  0  0  0
 18 19  1  0  0  0  0
 15 19  1  0  0  0  0
  7 20  1  0  0  0  0
 20 21  2  0  0  0  0
 21 22  1  0  0  0  0
 22 23  2  0  0  0  0
  2 23  1  0  0  0  0
  6 23  1  0  0  0  0
M  END
