Z2034608220
  MJ210100                      

 19 20  0  0  0  0  0  0  0  0999 V2000
   -0.6965    0.5900    0.0000 C   0  0  0  0  0  0  0  0  0  0  0  0
   -0.6965   -0.2349    0.0000 O   0  0  0  0  0  0  0  0  0  0  0  0
    0.0179   -0.6474    0.0000 C   0  0  0  0  0  0  0  0  0  0  0  0
    0.7324   -0.2349    0.0000 O   0  0  0  0  0  0  0  0  0  0  0  0
    0.0179   -1.4724    0.0000 C   0  0  0  0  0  0  0  0  0  0  0  0
    0.6853   -1.9573    0.0000 C   0  0  0  0  0  0  0  0  0  0  0  0
    0.4304   -2.7419    0.0000 C   0  0  0  0  0  0  0  0  0  0  0  0
    0.9153   -3.4093    0.0000 C   0  0  0  0  0  0  0  0  0  0  0  0
    1.7358   -3.3231    0.0000 N   0  0  0  0  0  0  0  0  0  0  0  0
    2.1483   -2.6086    0.0000 C   0  0  0  0  0  0  0  0  0  0  0  0
    2.9553   -2.7801    0.0000 C   0  0  0  0  0  0  0  0  0  0  0  0
    3.0415   -3.6006    0.0000 C   0  0  0  0  0  0  0  0  0  0  0  0
    2.2878   -3.9362    0.0000 N   0  0  0  0  0  0  0  0  0  0  0  0
    3.7560   -4.0131    0.0000 C   0  0  0  0  0  0  0  0  0  0  0  0
    4.4704   -3.6006    0.0000 C   0  0  0  0  0  0  0  0  0  0  0  0
    3.7560   -4.8381    0.0000 O   0  0  0  0  0  0  0  0  0  0  0  0
   -0.3945   -2.7419    0.0000 C   0  0  0  0  0  0  0  0  0  0  0  0
   -0.8794   -3.4093    0.0000 C   0  0  0  0  0  0  0  0  0  0  0  0
   -0.6495   -1.9573    0.0000 S   0  0  0  0  0  0  0  0  0  0  0  0
  1  2  1  0  0  0  0
  2  3  1  0  0  0  0
  3  4  2  0  0  0  0
  3  5  1  0  0  0  0
  5  6  2  0  0  0  0
  6  7  1  0  0  0  0
  7  8  1  0  0  0  0
  8  9  1  0  0  0  0
  9 10  1  0  0  0  0
 10 11  2  0  0  0  0
 11 12  1  0  0  0  0
 12 13  2  0  0  0  0
  9 13  1  0  0  0  0
 12 14  1  0  0  0  0
 14 15  1  0  0  0  0
 14 16  2  0  0  0  0
  7 17  2  0  0  0  0
 17 18  1  0  0  0  0
 17 19  1  0  0  0  0
  5 19  1  0  0  0  0
M  END
