Z2091863999
  MJ210100                      

 24 26  0  0  0  0  0  0  0  0999 V2000
    2.8578   -0.8250    0.0000 C   0  0  0  0  0  0  0  0  0  0  0  0
    3.5723   -1.2375    0.0000 O   0  0  0  0  0  0  0  0  0  0  0  0
    4.2868   -0.8250    0.0000 C   0  0  0  0  0  0  0  0  0  0  0  0
    5.0013   -1.2375    0.0000 C   0  0  0  0  0  0  0  0  0  0  0  0
    5.7157   -0.8250    0.0000 N   0  0  0  0  0  0  0  0  0  0  0  0
    6.4302   -1.2375    0.0000 C   0  0  0  0  0  0  0  0  0  0  0  0
    6.4302   -2.0625    0.0000 C   0  0  0  0  0  0  0  0  0  0  0  0
    7.1447   -2.4750    0.0000 C   0  0  0  0  0  0  0  0  0  0  0  0
    7.1447   -3.3000    0.0000 C   0  0  0  0  0  0  0  0  0  0  0  0
    6.4302   -3.7125    0.0000 C   0  0  0  0  0  0  0  0  0  0  0  0
    6.2586   -4.5194    0.0000 O   0  0  0  0  0  0  0  0  0  0  0  0
    5.4382   -4.6056    0.0000 C   0  0  0  0  0  0  0  0  0  0  0  0
    5.1026   -3.8520    0.0000 O   0  0  0  0  0  0  0  0  0  0  0  0
    5.7157   -3.3000    0.0000 C   0  0  0  0  0  0  0  0  0  0  0  0
    5.7157   -2.4750    0.0000 C   0  0  0  0  0  0  0  0  0  0  0  0
    5.7157    0.0000    0.0000 C   0  0  0  0  0  0  0  0  0  0  0  0
    5.0483    0.4849    0.0000 N   0  0  0  0  0  0  0  0  0  0  0  0
    5.3032    1.2695    0.0000 C   0  0  0  0  0  0  0  0  0  0  0  0
    6.1282    1.2695    0.0000 N   0  0  0  0  0  0  0  0  0  0  0  0
    6.3831    0.4849    0.0000 S   0  0  0  0  0  0  0  0  0  0  0  0
    4.8183    1.9369    0.0000 C   0  0  0  0  0  0  0  0  0  0  0  0
    4.3334    2.6044    0.0000 F   0  0  0  0  0  0  0  0  0  0  0  0
    5.4857    2.4219    0.0000 F   0  0  0  0  0  0  0  0  0  0  0  0
    4.1509    1.4520    0.0000 F   0  0  0  0  0  0  0  0  0  0  0  0
  1  2  1  0  0  0  0
  2  3  1  0  0  0  0
  3  4  1  0  0  0  0
  4  5  1  0  0  0  0
  5  6  1  0  0  0  0
  6  7  1  0  0  0  0
  7  8  2  0  0  0  0
  8  9  1  0  0  0  0
  9 10  2  0  0  0  0
 10 11  1  0  0  0  0
 11 12  1  0  0  0  0
 12 13  1  0  0  0  0
 13 14  1  0  0  0  0
 10 14  1  0  0  0  0
 14 15  2  0  0  0  0
  7 15  1  0  0  0  0
  5 16  1  0  0  0  0
 16 17  2  0  0  0  0
 17 18  1  0  0  0  0
 18 19  2  0  0  0  0
 19 20  1  0  0  0  0
 16 20  1  0  0  0  0
 18 21  1  0  0  0  0
 21 22  1  0  0  0  0
 21 23  1  0  0  0  0
 21 24  1  0  0  0  0
M  END
