Z2223030428 
  MJ210100                      

 20 21  0  0  0  0  0  0  0  0999 V2000
   -1.5356    8.0651    0.0000 C   0  0  0  0  0  0  0  0  0  0  0  0
   -0.8211    8.4776    0.0000 O   0  0  0  0  0  0  0  0  0  0  0  0
   -0.1067    8.0651    0.0000 C   0  0  0  0  0  0  0  0  0  0  0  0
    0.6077    8.4776    0.0000 C   0  0  0  0  0  0  0  0  0  0  0  0
    1.3222    8.0651    0.0000 C   0  0  0  0  0  0  0  0  0  0  0  0
    1.3222    7.2401    0.0000 C   0  0  0  0  0  0  0  0  0  0  0  0
    2.0367    6.8276    0.0000 C   0  0  0  0  0  0  0  0  0  0  0  0
    2.0367    6.0026    0.0000 N   0  0  0  0  0  0  0  0  0  0  0  0
    1.3222    5.5901    0.0000 C   0  0  0  0  0  0  0  0  0  0  0  0
    2.7511    5.5901    0.0000 C   0  0  0  0  0  0  0  0  0  0  0  0
    3.4656    6.0026    0.0000 O   0  0  0  0  0  0  0  0  0  0  0  0
    2.7511    4.7651    0.0000 C   0  0  0  0  0  0  0  0  0  0  0  0
    3.4186    4.2802    0.0000 C   0  0  0  0  0  0  0  0  0  0  0  0
    3.1636    3.4956    0.0000 C   0  0  0  0  0  0  0  0  0  0  0  0
    3.6485    2.8281    0.0000 F   0  0  0  0  0  0  0  0  0  0  0  0
    2.3386    3.4956    0.0000 C   0  0  0  0  0  0  0  0  0  0  0  0
    2.0837    4.2802    0.0000 N   0  0  0  0  0  0  0  0  0  0  0  0
    0.6077    6.8276    0.0000 C   0  0  0  0  0  0  0  0  0  0  0  0
   -0.1067    7.2401    0.0000 C   0  0  0  0  0  0  0  0  0  0  0  0
   -0.8211    6.8276    0.0000 O   0  0  0  0  0  0  0  0  0  0  0  0
  1  2  1  0  0  0  0
  2  3  1  0  0  0  0
  3  4  2  0  0  0  0
  4  5  1  0  0  0  0
  5  6  2  0  0  0  0
  6  7  1  0  0  0  0
  7  8  1  0  0  0  0
  8  9  1  0  0  0  0
  8 10  1  0  0  0  0
 10 11  2  0  0  0  0
 10 12  1  0  0  0  0
 12 13  2  0  0  0  0
 13 14  1  0  0  0  0
 14 15  1  0  0  0  0
 14 16  2  0  0  0  0
 16 17  1  0  0  0  0
 12 17  1  0  0  0  0
  6 18  1  0  0  0  0
 18 19  2  0  0  0  0
  3 19  1  0  0  0  0
 19 20  1  0  0  0  0
M  END
