Z231663050 
  MJ210100                      

 18 20  0  0  0  0  0  0  0  0999 V2000
   -0.7157   12.1978    0.0000 C   0  0  0  0  0  0  0  0  0  0  0  0
    0.1047   12.2840    0.0000 O   0  0  0  0  0  0  0  0  0  0  0  0
    0.5897   11.6166    0.0000 C   0  0  0  0  0  0  0  0  0  0  0  0
    1.4101   11.7028    0.0000 C   0  0  0  0  0  0  0  0  0  0  0  0
    1.8950   11.0353    0.0000 C   0  0  0  0  0  0  0  0  0  0  0  0
    1.5595   10.2817    0.0000 C   0  0  0  0  0  0  0  0  0  0  0  0
    2.0444    9.6143    0.0000 C   0  0  0  0  0  0  0  0  0  0  0  0
    1.7089    8.8606    0.0000 S   0  0  0  0  0  0  0  0  0  0  0  0
    2.1938    8.1932    0.0000 C   0  0  0  0  0  0  0  0  0  0  0  0
    3.0188    8.1932    0.0000 N   0  0  0  0  0  0  0  0  0  0  0  0
    3.2737    7.4085    0.0000 N   0  0  0  0  0  0  0  0  0  0  0  0
    2.6063    6.9236    0.0000 C   0  0  0  0  0  0  0  0  0  0  0  0
    1.9389    7.4085    0.0000 N   0  0  0  0  0  0  0  0  0  0  0  0
    2.6063    6.0986    0.0000 C   0  0  0  0  0  0  0  0  0  0  0  0
    3.0188    5.3841    0.0000 C   0  0  0  0  0  0  0  0  0  0  0  0
    2.1938    5.3841    0.0000 C   0  0  0  0  0  0  0  0  0  0  0  0
    0.7390   10.1955    0.0000 C   0  0  0  0  0  0  0  0  0  0  0  0
    0.2541   10.8629    0.0000 C   0  0  0  0  0  0  0  0  0  0  0  0
  1  2  1  0  0  0  0
  2  3  1  0  0  0  0
  3  4  2  0  0  0  0
  4  5  1  0  0  0  0
  5  6  2  0  0  0  0
  6  7  1  0  0  0  0
  7  8  1  0  0  0  0
  8  9  1  0  0  0  0
  9 10  2  0  0  0  0
 10 11  1  0  0  0  0
 11 12  2  0  0  0  0
 12 13  1  0  0  0  0
  9 13  1  0  0  0  0
 12 14  1  0  0  0  0
 14 15  1  0  0  0  0
 15 16  1  0  0  0  0
 14 16  1  0  0  0  0
  6 17  1  0  0  0  0
 17 18  2  0  0  0  0
  3 18  1  0  0  0  0
M  END
