Z2344648963 
  MJ210100                      

 19 21  0  0  0  0  0  0  0  0999 V2000
   -0.9870   10.3090    0.0000 C   0  0  0  0  0  0  0  0  0  0  0  0
   -0.9870    9.4840    0.0000 O   0  0  0  0  0  0  0  0  0  0  0  0
   -0.2725    9.0715    0.0000 C   0  0  0  0  0  0  0  0  0  0  0  0
    0.4419    9.4840    0.0000 O   0  0  0  0  0  0  0  0  0  0  0  0
   -0.2725    8.2465    0.0000 C   0  0  0  0  0  0  0  0  0  0  0  0
    0.3948    7.7615    0.0000 C   0  0  0  0  0  0  0  0  0  0  0  0
    0.1399    6.9769    0.0000 C   0  0  0  0  0  0  0  0  0  0  0  0
    0.6249    6.3095    0.0000 C   0  0  0  0  0  0  0  0  0  0  0  0
    0.2893    5.5558    0.0000 S   0  0  0  0  0  0  0  0  0  0  0  0
    0.7742    4.8884    0.0000 C   0  0  0  0  0  0  0  0  0  0  0  0
    1.5992    4.8884    0.0000 N   0  0  0  0  0  0  0  0  0  0  0  0
    1.8542    4.1037    0.0000 N   0  0  0  0  0  0  0  0  0  0  0  0
    1.1867    3.6188    0.0000 C   0  0  0  0  0  0  0  0  0  0  0  0
    0.5193    4.1037    0.0000 N   0  0  0  0  0  0  0  0  0  0  0  0
    1.1867    2.7938    0.0000 C   0  0  0  0  0  0  0  0  0  0  0  0
    1.5992    2.0794    0.0000 C   0  0  0  0  0  0  0  0  0  0  0  0
    0.7742    2.0794    0.0000 C   0  0  0  0  0  0  0  0  0  0  0  0
   -0.6850    6.9769    0.0000 C   0  0  0  0  0  0  0  0  0  0  0  0
   -0.9399    7.7615    0.0000 S   0  0  0  0  0  0  0  0  0  0  0  0
  1  2  1  0  0  0  0
  2  3  1  0  0  0  0
  3  4  2  0  0  0  0
  3  5  1  0  0  0  0
  5  6  2  0  0  0  0
  6  7  1  0  0  0  0
  7  8  1  0  0  0  0
  8  9  1  0  0  0  0
  9 10  1  0  0  0  0
 10 11  2  0  0  0  0
 11 12  1  0  0  0  0
 12 13  2  0  0  0  0
 13 14  1  0  0  0  0
 10 14  1  0  0  0  0
 13 15  1  0  0  0  0
 15 16  1  0  0  0  0
 16 17  1  0  0  0  0
 15 17  1  0  0  0  0
  7 18  2  0  0  0  0
 18 19  1  0  0  0  0
  5 19  1  0  0  0  0
M  END
