Z2365412762
  MJ210100                      

 22 24  0  0  0  0  0  0  0  0999 V2000
   -4.2724    2.6477    0.0000 C   0  0  0  0  0  0  0  0  0  0  0  0
   -3.7204    2.0346    0.0000 O   0  0  0  0  0  0  0  0  0  0  0  0
   -2.9134    2.2061    0.0000 C   0  0  0  0  0  0  0  0  0  0  0  0
   -2.6585    2.9907    0.0000 O   0  0  0  0  0  0  0  0  0  0  0  0
   -2.3614    1.5931    0.0000 C   0  0  0  0  0  0  0  0  0  0  0  0
   -1.5409    1.6793    0.0000 C   0  0  0  0  0  0  0  0  0  0  0  0
   -1.2054    0.9256    0.0000 C   0  0  0  0  0  0  0  0  0  0  0  0
   -0.3984    0.7541    0.0000 C   0  0  0  0  0  0  0  0  0  0  0  0
   -0.1435   -0.0304    0.0000 N   0  0  0  0  0  0  0  0  0  0  0  0
   -0.6284   -0.6979    0.0000 C   0  0  0  0  0  0  0  0  0  0  0  0
   -0.1435   -1.3653    0.0000 C   0  0  0  0  0  0  0  0  0  0  0  0
    0.6410   -1.1104    0.0000 N   0  0  0  0  0  0  0  0  0  0  0  0
    0.6410   -0.2854    0.0000 C   0  0  0  0  0  0  0  0  0  0  0  0
    1.3555    0.1270    0.0000 N   0  0  0  0  0  0  0  0  0  0  0  0
    2.0700   -0.2854    0.0000 C   0  0  0  0  0  0  0  0  0  0  0  0
    2.7845    0.1270    0.0000 C   0  0  0  0  0  0  0  0  0  0  0  0
    2.0700   -1.1104    0.0000 C   0  0  0  0  0  0  0  0  0  0  0  0
    1.3555   -1.5229    0.0000 C   0  0  0  0  0  0  0  0  0  0  0  0
    1.3555   -2.3479    0.0000 O   0  0  0  0  0  0  0  0  0  0  0  0
   -1.8185    0.3736    0.0000 C   0  0  0  0  0  0  0  0  0  0  0  0
   -1.7322   -0.4468    0.0000 C   0  0  0  0  0  0  0  0  0  0  0  0
   -2.5329    0.7861    0.0000 S   0  0  0  0  0  0  0  0  0  0  0  0
  1  2  1  0  0  0  0
  2  3  1  0  0  0  0
  3  4  2  0  0  0  0
  3  5  1  0  0  0  0
  5  6  2  0  0  0  0
  6  7  1  0  0  0  0
  7  8  1  0  0  0  0
  8  9  1  0  0  0  0
  9 10  1  0  0  0  0
 10 11  2  0  0  0  0
 11 12  1  0  0  0  0
 12 13  1  0  0  0  0
  9 13  1  0  0  0  0
 13 14  2  0  0  0  0
 14 15  1  0  0  0  0
 15 16  1  0  0  0  0
 15 17  2  0  0  0  0
 17 18  1  0  0  0  0
 12 18  1  0  0  0  0
 18 19  2  0  0  0  0
  7 20  2  0  0  0  0
 20 21  1  0  0  0  0
 20 22  1  0  0  0  0
  5 22  1  0  0  0  0
M  END
