Z2365411510 
  MJ210100                      

 23 25  0  0  0  0  0  0  0  0999 V2000
   -4.1783    0.8271    0.0000 C   0  0  0  0  0  0  0  0  0  0  0  0
   -3.6263    1.4402    0.0000 O   0  0  0  0  0  0  0  0  0  0  0  0
   -2.8193    1.2686    0.0000 C   0  0  0  0  0  0  0  0  0  0  0  0
   -2.2673    1.8818    0.0000 C   0  0  0  0  0  0  0  0  0  0  0  0
   -1.4603    1.7102    0.0000 C   0  0  0  0  0  0  0  0  0  0  0  0
   -0.9083    2.3233    0.0000 Br  0  0  0  0  0  0  0  0  0  0  0  0
   -1.2054    0.9256    0.0000 C   0  0  0  0  0  0  0  0  0  0  0  0
   -0.3984    0.7541    0.0000 C   0  0  0  0  0  0  0  0  0  0  0  0
   -0.1435   -0.0304    0.0000 N   0  0  0  0  0  0  0  0  0  0  0  0
   -0.6284   -0.6979    0.0000 C   0  0  0  0  0  0  0  0  0  0  0  0
   -0.1435   -1.3653    0.0000 C   0  0  0  0  0  0  0  0  0  0  0  0
    0.6410   -1.1104    0.0000 N   0  0  0  0  0  0  0  0  0  0  0  0
    0.6410   -0.2854    0.0000 C   0  0  0  0  0  0  0  0  0  0  0  0
    1.3555    0.1270    0.0000 N   0  0  0  0  0  0  0  0  0  0  0  0
    2.0700   -0.2854    0.0000 C   0  0  0  0  0  0  0  0  0  0  0  0
    2.7845    0.1270    0.0000 C   0  0  0  0  0  0  0  0  0  0  0  0
    2.0700   -1.1104    0.0000 C   0  0  0  0  0  0  0  0  0  0  0  0
    1.3555   -1.5229    0.0000 C   0  0  0  0  0  0  0  0  0  0  0  0
    1.3555   -2.3479    0.0000 O   0  0  0  0  0  0  0  0  0  0  0  0
   -1.7574    0.3125    0.0000 C   0  0  0  0  0  0  0  0  0  0  0  0
   -2.5644    0.4840    0.0000 C   0  0  0  0  0  0  0  0  0  0  0  0
   -3.1164   -0.1290    0.0000 O   0  0  0  0  0  0  0  0  0  0  0  0
   -3.9234    0.0425    0.0000 C   0  0  0  0  0  0  0  0  0  0  0  0
  1  2  1  0  0  0  0
  2  3  1  0  0  0  0
  3  4  2  0  0  0  0
  4  5  1  0  0  0  0
  5  6  1  0  0  0  0
  5  7  2  0  0  0  0
  7  8  1  0  0  0  0
  8  9  1  0  0  0  0
  9 10  1  0  0  0  0
 10 11  2  0  0  0  0
 11 12  1  0  0  0  0
 12 13  1  0  0  0  0
  9 13  1  0  0  0  0
 13 14  2  0  0  0  0
 14 15  1  0  0  0  0
 15 16  1  0  0  0  0
 15 17  2  0  0  0  0
 17 18  1  0  0  0  0
 12 18  1  0  0  0  0
 18 19  2  0  0  0  0
  7 20  1  0  0  0  0
 20 21  2  0  0  0  0
  3 21  1  0  0  0  0
 21 22  1  0  0  0  0
 22 23  1  0  0  0  0
M  END
