Z2613821040
  MJ210100                      

 18 19  0  0  0  0  0  0  0  0999 V2000
    1.8185    1.4072    0.0000 C   0  0  0  0  0  0  0  0  0  0  0  0
    1.8185    0.5822    0.0000 O   0  0  0  0  0  0  0  0  0  0  0  0
    2.5329    0.1697    0.0000 C   0  0  0  0  0  0  0  0  0  0  0  0
    3.2474    0.5822    0.0000 O   0  0  0  0  0  0  0  0  0  0  0  0
    2.5329   -0.6552    0.0000 C   0  0  0  0  0  0  0  0  0  0  0  0
    1.8655   -1.1401    0.0000 C   0  0  0  0  0  0  0  0  0  0  0  0
    2.1204   -1.9247    0.0000 C   0  0  0  0  0  0  0  0  0  0  0  0
    1.6355   -2.5922    0.0000 C   0  0  0  0  0  0  0  0  0  0  0  0
    0.8150   -2.5059    0.0000 N   0  0  0  0  0  0  0  0  0  0  0  0
    0.2630   -3.1190    0.0000 N   0  0  0  0  0  0  0  0  0  0  0  0
    0.4345   -3.9260    0.0000 C   0  0  0  0  0  0  0  0  0  0  0  0
   -0.4906   -2.7835    0.0000 C   0  0  0  0  0  0  0  0  0  0  0  0
   -0.4044   -1.9630    0.0000 C   0  0  0  0  0  0  0  0  0  0  0  0
    0.4025   -1.7914    0.0000 C   0  0  0  0  0  0  0  0  0  0  0  0
    0.7381   -1.0377    0.0000 O   0  0  0  0  0  0  0  0  0  0  0  0
    2.9454   -1.9247    0.0000 C   0  0  0  0  0  0  0  0  0  0  0  0
    3.4303   -2.5922    0.0000 C   0  0  0  0  0  0  0  0  0  0  0  0
    3.2004   -1.1401    0.0000 S   0  0  0  0  0  0  0  0  0  0  0  0
  1  2  1  0  0  0  0
  2  3  1  0  0  0  0
  3  4  2  0  0  0  0
  3  5  1  0  0  0  0
  5  6  2  0  0  0  0
  6  7  1  0  0  0  0
  7  8  1  0  0  0  0
  8  9  1  0  0  0  0
  9 10  1  0  0  0  0
 10 11  1  0  0  0  0
 10 12  1  0  0  0  0
 12 13  2  0  0  0  0
 13 14  1  0  0  0  0
  9 14  1  0  0  0  0
 14 15  2  0  0  0  0
  7 16  2  0  0  0  0
 16 17  1  0  0  0  0
 16 18  1  0  0  0  0
  5 18  1  0  0  0  0
M  END
