Z2613947763
  MJ210100                      

 24 27  0  0  0  0  0  0  0  0999 V2000
    2.7111   -2.3517    0.0000 C   0  0  0  0  0  0  0  0  0  0  0  0
    1.9967   -2.7642    0.0000 C   0  0  0  0  0  0  0  0  0  0  0  0
    1.9967   -3.5892    0.0000 C   0  0  0  0  0  0  0  0  0  0  0  0
    1.2822   -4.0017    0.0000 C   0  0  0  0  0  0  0  0  0  0  0  0
    1.2822   -4.8267    0.0000 O   0  0  0  0  0  0  0  0  0  0  0  0
    0.5677   -3.5892    0.0000 N   0  0  0  0  0  0  0  0  0  0  0  0
   -0.2168   -3.8442    0.0000 C   0  0  0  0  0  0  0  0  0  0  0  0
   -0.7017   -3.1767    0.0000 C   0  0  0  0  0  0  0  0  0  0  0  0
   -0.2168   -2.5093    0.0000 N   0  0  0  0  0  0  0  0  0  0  0  0
   -0.4718   -1.7247    0.0000 C   0  0  0  0  0  0  0  0  0  0  0  0
    0.0802   -1.1116    0.0000 C   0  0  0  0  0  0  0  0  0  0  0  0
   -0.1746   -0.3270    0.0000 C   0  0  0  0  0  0  0  0  0  0  0  0
   -0.9816   -0.1554    0.0000 C   0  0  0  0  0  0  0  0  0  0  0  0
   -1.2366    0.6291    0.0000 C   0  0  0  0  0  0  0  0  0  0  0  0
   -0.6845    1.2422    0.0000 C   0  0  0  0  0  0  0  0  0  0  0  0
   -0.7708    2.0627    0.0000 O   0  0  0  0  0  0  0  0  0  0  0  0
   -0.0171    2.3982    0.0000 C   0  0  0  0  0  0  0  0  0  0  0  0
   -0.4296    3.1127    0.0000 F   0  0  0  0  0  0  0  0  0  0  0  0
    0.6503    2.8832    0.0000 F   0  0  0  0  0  0  0  0  0  0  0  0
    0.5349    1.7851    0.0000 O   0  0  0  0  0  0  0  0  0  0  0  0
    0.1224    1.0707    0.0000 C   0  0  0  0  0  0  0  0  0  0  0  0
    0.3773    0.2860    0.0000 C   0  0  0  0  0  0  0  0  0  0  0  0
    0.5677   -2.7642    0.0000 C   0  0  0  0  0  0  0  0  0  0  0  0
    1.2822   -2.3517    0.0000 N   0  0  0  0  0  0  0  0  0  0  0  0
  1  2  1  0  0  0  0
  2  3  2  0  0  0  0
  3  4  1  0  0  0  0
  4  5  2  0  0  0  0
  4  6  1  0  0  0  0
  6  7  1  0  0  0  0
  7  8  2  0  0  0  0
  8  9  1  0  0  0  0
  9 10  1  0  0  0  0
 10 11  1  0  0  0  0
 11 12  1  0  0  0  0
 12 13  2  0  0  0  0
 13 14  1  0  0  0  0
 14 15  2  0  0  0  0
 15 16  1  0  0  0  0
 16 17  1  0  0  0  0
 17 18  1  0  0  0  0
 17 19  1  0  0  0  0
 17 20  1  0  0  0  0
 20 21  1  0  0  0  0
 15 21  1  0  0  0  0
 21 22  2  0  0  0  0
 12 22  1  0  0  0  0
  9 23  1  0  0  0  0
  6 23  1  0  0  0  0
 23 24  2  0  0  0  0
  2 24  1  0  0  0  0
M  END
