Z2769133977 
  MJ210100                      

 20 21  0  0  0  0  0  0  0  0999 V2000
    1.6737   -0.3404    0.0000 C   0  0  0  0  0  0  0  0  0  0  0  0
    1.6737   -1.1654    0.0000 O   0  0  0  0  0  0  0  0  0  0  0  0
    0.9593   -1.5779    0.0000 C   0  0  0  0  0  0  0  0  0  0  0  0
    0.2448   -1.1654    0.0000 O   0  0  0  0  0  0  0  0  0  0  0  0
    0.9593   -2.4029    0.0000 C   0  0  0  0  0  0  0  0  0  0  0  0
    1.6267   -2.8878    0.0000 C   0  0  0  0  0  0  0  0  0  0  0  0
    1.3718   -3.6724    0.0000 S   0  0  0  0  0  0  0  0  0  0  0  0
    0.5468   -3.6724    0.0000 C   0  0  0  0  0  0  0  0  0  0  0  0
    0.0619   -4.3399    0.0000 C   0  0  0  0  0  0  0  0  0  0  0  0
   -0.7585   -4.2536    0.0000 S   0  0  0  0  0  0  0  0  0  0  0  0
   -1.2435   -4.9211    0.0000 C   0  0  0  0  0  0  0  0  0  0  0  0
   -0.9885   -5.7057    0.0000 N   0  0  0  0  0  0  0  0  0  0  0  0
   -1.6560   -6.1906    0.0000 N   0  0  0  0  0  0  0  0  0  0  0  0
   -2.3234   -5.7057    0.0000 C   0  0  0  0  0  0  0  0  0  0  0  0
   -2.0685   -4.9211    0.0000 N   0  0  0  0  0  0  0  0  0  0  0  0
   -3.1080   -5.9606    0.0000 C   0  0  0  0  0  0  0  0  0  0  0  0
   -3.8926   -6.2156    0.0000 C   0  0  0  0  0  0  0  0  0  0  0  0
   -3.3630   -5.1760    0.0000 C   0  0  0  0  0  0  0  0  0  0  0  0
   -2.8531   -6.7452    0.0000 C   0  0  0  0  0  0  0  0  0  0  0  0
    0.2919   -2.8878    0.0000 C   0  0  0  0  0  0  0  0  0  0  0  0
  1  2  1  0  0  0  0
  2  3  1  0  0  0  0
  3  4  2  0  0  0  0
  3  5  1  0  0  0  0
  5  6  2  0  0  0  0
  6  7  1  0  0  0  0
  7  8  1  0  0  0  0
  8  9  1  0  0  0  0
  9 10  1  0  0  0  0
 10 11  1  0  0  0  0
 11 12  2  0  0  0  0
 12 13  1  0  0  0  0
 13 14  2  0  0  0  0
 14 15  1  0  0  0  0
 11 15  1  0  0  0  0
 14 16  1  0  0  0  0
 16 17  1  0  0  0  0
 16 18  1  0  0  0  0
 16 19  1  0  0  0  0
  8 20  2  0  0  0  0
  5 20  1  0  0  0  0
M  END
