Z2850356925
  MJ210100                      

 22 23  0  0  0  0  0  0  0  0999 V2000
    2.2501    3.6508    0.0000 C   0  0  0  0  0  0  0  0  0  0  0  0
    1.5356    3.2383    0.0000 C   0  0  0  0  0  0  0  0  0  0  0  0
    0.8211    3.6508    0.0000 O   0  0  0  0  0  0  0  0  0  0  0  0
    0.1067    3.2383    0.0000 C   0  0  0  0  0  0  0  0  0  0  0  0
    0.1067    2.4133    0.0000 O   0  0  0  0  0  0  0  0  0  0  0  0
   -0.6077    3.6508    0.0000 C   0  0  0  0  0  0  0  0  0  0  0  0
   -1.3222    3.2383    0.0000 N   0  0  0  0  0  0  0  0  0  0  0  0
   -2.0367    3.6508    0.0000 C   0  0  0  0  0  0  0  0  0  0  0  0
   -2.0367    4.4758    0.0000 C   0  0  0  0  0  0  0  0  0  0  0  0
   -1.3222    4.8883    0.0000 C   0  0  0  0  0  0  0  0  0  0  0  0
   -0.6077    4.4758    0.0000 C   0  0  0  0  0  0  0  0  0  0  0  0
    0.1067    4.8883    0.0000 Br  0  0  0  0  0  0  0  0  0  0  0  0
   -2.7511    3.2383    0.0000 N   0  0  0  0  0  0  0  0  0  0  0  0
   -3.4656    3.6508    0.0000 C   0  0  0  0  0  0  0  0  0  0  0  0
   -2.7511    2.4133    0.0000 C   0  0  0  0  0  0  0  0  0  0  0  0
   -3.4656    2.0008    0.0000 C   0  0  0  0  0  0  0  0  0  0  0  0
   -3.4656    1.1758    0.0000 C   0  0  0  0  0  0  0  0  0  0  0  0
   -2.7981    0.6909    0.0000 N   0  0  0  0  0  0  0  0  0  0  0  0
   -3.0531   -0.0936    0.0000 O   0  0  0  0  0  0  0  0  0  0  0  0
   -3.8781   -0.0936    0.0000 C   0  0  0  0  0  0  0  0  0  0  0  0
   -4.3630   -0.7610    0.0000 C   0  0  0  0  0  0  0  0  0  0  0  0
   -4.1330    0.6909    0.0000 N   0  0  0  0  0  0  0  0  0  0  0  0
  1  2  1  0  0  0  0
  2  3  1  0  0  0  0
  3  4  1  0  0  0  0
  4  5  2  0  0  0  0
  4  6  1  0  0  0  0
  6  7  2  0  0  0  0
  7  8  1  0  0  0  0
  8  9  2  0  0  0  0
  9 10  1  0  0  0  0
 10 11  2  0  0  0  0
  6 11  1  0  0  0  0
 11 12  1  0  0  0  0
  8 13  1  0  0  0  0
 13 14  1  0  0  0  0
 13 15  1  0  0  0  0
 15 16  1  0  0  0  0
 16 17  1  0  0  0  0
 17 18  2  0  0  0  0
 18 19  1  0  0  0  0
 19 20  1  0  0  0  0
 20 21  1  0  0  0  0
 20 22  2  0  0  0  0
 17 22  1  0  0  0  0
M  END
