Z2850437507
  MJ210100                      

 20 21  0  0  0  0  0  0  0  0999 V2000
    0.8211    6.8276    0.0000 C   0  0  0  0  0  0  0  0  0  0  0  0
    0.8211    6.0026    0.0000 C   0  0  0  0  0  0  0  0  0  0  0  0
    0.1067    5.5901    0.0000 O   0  0  0  0  0  0  0  0  0  0  0  0
    0.1067    4.7651    0.0000 C   0  0  0  0  0  0  0  0  0  0  0  0
    0.8211    4.3526    0.0000 O   0  0  0  0  0  0  0  0  0  0  0  0
   -0.6077    4.3526    0.0000 C   0  0  0  0  0  0  0  0  0  0  0  0
   -0.6077    3.5276    0.0000 N   0  0  0  0  0  0  0  0  0  0  0  0
   -1.3222    3.1151    0.0000 C   0  0  0  0  0  0  0  0  0  0  0  0
   -2.0367    3.5276    0.0000 C   0  0  0  0  0  0  0  0  0  0  0  0
   -2.0367    4.3526    0.0000 C   0  0  0  0  0  0  0  0  0  0  0  0
   -1.3222    4.7651    0.0000 C   0  0  0  0  0  0  0  0  0  0  0  0
   -1.3222    5.5901    0.0000 Br  0  0  0  0  0  0  0  0  0  0  0  0
   -1.3222    2.2901    0.0000 N   0  0  0  0  0  0  0  0  0  0  0  0
   -0.6548    1.8052    0.0000 C   0  0  0  0  0  0  0  0  0  0  0  0
   -0.9097    1.0206    0.0000 C   0  0  0  0  0  0  0  0  0  0  0  0
   -1.7347    1.0206    0.0000 C   0  0  0  0  0  0  0  0  0  0  0  0
   -1.9896    1.8052    0.0000 C   0  0  0  0  0  0  0  0  0  0  0  0
   -2.2196    0.3531    0.0000 C   0  0  0  0  0  0  0  0  0  0  0  0
   -1.8841   -0.4005    0.0000 N   0  0  0  0  0  0  0  0  0  0  0  0
   -3.0401    0.4394    0.0000 O   0  0  0  0  0  0  0  0  0  0  0  0
  1  2  1  0  0  0  0
  2  3  1  0  0  0  0
  3  4  1  0  0  0  0
  4  5  2  0  0  0  0
  4  6  1  0  0  0  0
  6  7  2  0  0  0  0
  7  8  1  0  0  0  0
  8  9  2  0  0  0  0
  9 10  1  0  0  0  0
 10 11  2  0  0  0  0
  6 11  1  0  0  0  0
 11 12  1  0  0  0  0
  8 13  1  0  0  0  0
 13 14  1  0  0  0  0
 14 15  1  0  0  0  0
 15 16  1  0  0  0  0
 16 17  1  0  0  0  0
 13 17  1  0  0  0  0
 16 18  1  0  0  0  0
 18 19  1  0  0  0  0
 18 20  2  0  0  0  0
M  END
