Z2852703286
  MJ210100                      

 21 22  0  0  0  0  0  0  0  0999 V2000
    1.3222    0.7633    0.0000 C   0  0  0  0  0  0  0  0  0  0  0  0
    1.3222   -0.0616    0.0000 O   0  0  0  0  0  0  0  0  0  0  0  0
    2.0367   -0.4741    0.0000 C   0  0  0  0  0  0  0  0  0  0  0  0
    2.7511   -0.0616    0.0000 O   0  0  0  0  0  0  0  0  0  0  0  0
    2.0367   -1.2991    0.0000 C   0  0  0  0  0  0  0  0  0  0  0  0
    1.3692   -1.7840    0.0000 C   0  0  0  0  0  0  0  0  0  0  0  0
    1.6242   -2.5686    0.0000 C   0  0  0  0  0  0  0  0  0  0  0  0
    1.1393   -3.2360    0.0000 C   0  0  0  0  0  0  0  0  0  0  0  0
    0.3188   -3.1498    0.0000 N   0  0  0  0  0  0  0  0  0  0  0  0
   -0.1661   -3.8172    0.0000 N   0  0  0  0  0  0  0  0  0  0  0  0
   -0.9866   -3.7310    0.0000 C   0  0  0  0  0  0  0  0  0  0  0  0
   -1.4715   -4.3984    0.0000 Cl  0  0  0  0  0  0  0  0  0  0  0  0
   -1.3221   -2.9773    0.0000 C   0  0  0  0  0  0  0  0  0  0  0  0
   -2.1426   -2.8911    0.0000 O   0  0  0  0  0  0  0  0  0  0  0  0
   -2.6275   -3.5585    0.0000 C   0  0  0  0  0  0  0  0  0  0  0  0
   -0.8372   -2.3099    0.0000 C   0  0  0  0  0  0  0  0  0  0  0  0
   -0.0167   -2.3961    0.0000 C   0  0  0  0  0  0  0  0  0  0  0  0
    0.4681   -1.7287    0.0000 O   0  0  0  0  0  0  0  0  0  0  0  0
    2.4492   -2.5686    0.0000 C   0  0  0  0  0  0  0  0  0  0  0  0
    2.9341   -3.2360    0.0000 C   0  0  0  0  0  0  0  0  0  0  0  0
    2.7041   -1.7840    0.0000 S   0  0  0  0  0  0  0  0  0  0  0  0
  1  2  1  0  0  0  0
  2  3  1  0  0  0  0
  3  4  2  0  0  0  0
  3  5  1  0  0  0  0
  5  6  2  0  0  0  0
  6  7  1  0  0  0  0
  7  8  1  0  0  0  0
  8  9  1  0  0  0  0
  9 10  1  0  0  0  0
 10 11  2  0  0  0  0
 11 12  1  0  0  0  0
 11 13  1  0  0  0  0
 13 14  1  0  0  0  0
 14 15  1  0  0  0  0
 13 16  2  0  0  0  0
 16 17  1  0  0  0  0
  9 17  1  0  0  0  0
 17 18  2  0  0  0  0
  7 19  2  0  0  0  0
 19 20  1  0  0  0  0
 19 21  1  0  0  0  0
  5 21  1  0  0  0  0
M  END
