Z512511068
  MJ210100                      

 25 26  0  0  0  0  0  0  0  0999 V2000
   -2.8578   -1.6500    0.0000 C   0  0  0  0  0  0  0  0  0  0  0  0
   -2.1433   -1.2375    0.0000 N   0  0  0  0  0  0  0  0  0  0  0  0
   -1.4289   -1.6500    0.0000 C   0  0  0  0  0  0  0  0  0  0  0  0
   -1.4289   -2.4750    0.0000 C   0  0  0  0  0  0  0  0  0  0  0  0
   -0.7144   -2.8875    0.0000 C   0  0  0  0  0  0  0  0  0  0  0  0
   -0.7144   -3.7125    0.0000 C   0  0  0  0  0  0  0  0  0  0  0  0
   -1.4289   -4.1250    0.0000 C   0  0  0  0  0  0  0  0  0  0  0  0
   -2.1433   -3.7125    0.0000 C   0  0  0  0  0  0  0  0  0  0  0  0
   -2.1433   -2.8875    0.0000 C   0  0  0  0  0  0  0  0  0  0  0  0
   -2.8578   -4.1250    0.0000 C   0  0  0  0  0  0  0  0  0  0  0  0
   -3.5723   -4.5375    0.0000 F   0  0  0  0  0  0  0  0  0  0  0  0
   -2.4453   -4.8394    0.0000 F   0  0  0  0  0  0  0  0  0  0  0  0
   -3.2703   -3.4105    0.0000 F   0  0  0  0  0  0  0  0  0  0  0  0
   -2.1433   -0.4125    0.0000 C   0  0  0  0  0  0  0  0  0  0  0  0
   -1.4289    0.0000    0.0000 O   0  0  0  0  0  0  0  0  0  0  0  0
   -2.8578    0.0000    0.0000 C   0  0  0  0  0  0  0  0  0  0  0  0
   -3.5723   -0.4125    0.0000 C   0  0  0  0  0  0  0  0  0  0  0  0
   -4.2868    0.0000    0.0000 C   0  0  0  0  0  0  0  0  0  0  0  0
   -4.2868    0.8250    0.0000 C   0  0  0  0  0  0  0  0  0  0  0  0
   -3.5723    1.2375    0.0000 C   0  0  0  0  0  0  0  0  0  0  0  0
   -3.5723    2.0625    0.0000 O   0  0  0  0  0  0  0  0  0  0  0  0
   -2.8578    2.4750    0.0000 C   0  0  0  0  0  0  0  0  0  0  0  0
   -2.8578    3.3000    0.0000 F   0  0  0  0  0  0  0  0  0  0  0  0
   -2.1433    2.0625    0.0000 F   0  0  0  0  0  0  0  0  0  0  0  0
   -2.8578    0.8250    0.0000 C   0  0  0  0  0  0  0  0  0  0  0  0
  1  2  1  0  0  0  0
  2  3  1  0  0  0  0
  3  4  1  0  0  0  0
  4  5  2  0  0  0  0
  5  6  1  0  0  0  0
  6  7  2  0  0  0  0
  7  8  1  0  0  0  0
  8  9  2  0  0  0  0
  4  9  1  0  0  0  0
  8 10  1  0  0  0  0
 10 11  1  0  0  0  0
 10 12  1  0  0  0  0
 10 13  1  0  0  0  0
  2 14  1  0  0  0  0
 14 15  2  0  0  0  0
 14 16  1  0  0  0  0
 16 17  2  0  0  0  0
 17 18  1  0  0  0  0
 18 19  2  0  0  0  0
 19 20  1  0  0  0  0
 20 21  1  0  0  0  0
 21 22  1  0  0  0  0
 22 23  1  0  0  0  0
 22 24  1  0  0  0  0
 20 25  2  0  0  0  0
 16 25  1  0  0  0  0
M  END
