Z805386112
  MJ210100                      

 22 24  0  0  0  0  0  0  0  0999 V2000
    7.1660    6.1710    0.0000 C   0  0  0  0  0  0  0  0  0  0  0  0
    6.8304    5.4173    0.0000 O   0  0  0  0  0  0  0  0  0  0  0  0
    6.0100    5.3311    0.0000 C   0  0  0  0  0  0  0  0  0  0  0  0
    5.5250    5.9985    0.0000 O   0  0  0  0  0  0  0  0  0  0  0  0
    5.6744    4.5774    0.0000 C   0  0  0  0  0  0  0  0  0  0  0  0
    6.0869    3.8629    0.0000 C   0  0  0  0  0  0  0  0  0  0  0  0
    6.9073    3.7767    0.0000 Cl  0  0  0  0  0  0  0  0  0  0  0  0
    5.5348    3.2499    0.0000 N   0  0  0  0  0  0  0  0  0  0  0  0
    4.7812    3.5854    0.0000 C   0  0  0  0  0  0  0  0  0  0  0  0
    4.8674    4.4059    0.0000 S   0  0  0  0  0  0  0  0  0  0  0  0
    4.0667    3.1729    0.0000 N   0  0  0  0  0  0  0  0  0  0  0  0
    3.3522    3.5854    0.0000 C   0  0  0  0  0  0  0  0  0  0  0  0
    4.0667    2.3479    0.0000 C   0  0  0  0  0  0  0  0  0  0  0  0
    3.3522    1.9354    0.0000 C   0  0  0  0  0  0  0  0  0  0  0  0
    3.3522    1.1104    0.0000 C   0  0  0  0  0  0  0  0  0  0  0  0
    2.6378    0.6979    0.0000 C   0  0  0  0  0  0  0  0  0  0  0  0
    1.9233    1.1104    0.0000 C   0  0  0  0  0  0  0  0  0  0  0  0
    1.1387    0.8554    0.0000 O   0  0  0  0  0  0  0  0  0  0  0  0
    0.6537    1.5229    0.0000 C   0  0  0  0  0  0  0  0  0  0  0  0
    1.1387    2.1903    0.0000 O   0  0  0  0  0  0  0  0  0  0  0  0
    1.9233    1.9354    0.0000 C   0  0  0  0  0  0  0  0  0  0  0  0
    2.6378    2.3479    0.0000 C   0  0  0  0  0  0  0  0  0  0  0  0
  1  2  1  0  0  0  0
  2  3  1  0  0  0  0
  3  4  2  0  0  0  0
  3  5  1  0  0  0  0
  5  6  2  0  0  0  0
  6  7  1  0  0  0  0
  6  8  1  0  0  0  0
  8  9  2  0  0  0  0
  9 10  1  0  0  0  0
  5 10  1  0  0  0  0
  9 11  1  0  0  0  0
 11 12  1  0  0  0  0
 11 13  1  0  0  0  0
 13 14  1  0  0  0  0
 14 15  2  0  0  0  0
 15 16  1  0  0  0  0
 16 17  2  0  0  0  0
 17 18  1  0  0  0  0
 18 19  1  0  0  0  0
 19 20  1  0  0  0  0
 20 21  1  0  0  0  0
 17 21  1  0  0  0  0
 21 22  2  0  0  0  0
 14 22  1  0  0  0  0
M  END
