
     RDKit          3D

 19 19  0  0  0  0  0  0  0  0999 V2000
   -2.5427    1.1224   -0.8073 C   0  0  0  0  0  0  0  0  0  0  0  0
   -3.0960   -0.2251   -1.2873 C   0  0  0  0  0  0  0  0  0  0  0  0
   -4.5274   -0.2842   -0.7921 C   0  0  0  0  0  0  0  0  0  0  0  0
   -3.0687   -0.2140   -2.7823 C   0  0  0  0  0  0  0  0  0  0  0  0
   -2.2895   -1.2423   -0.6919 N   0  0  0  0  0  0  0  0  0  0  0  0
   -2.3326   -1.2899    0.7319 C   0  0  0  0  0  0  0  0  0  0  0  0
   -1.5780    0.1138    1.2496 C   0  0  1  0  0  0  0  0  0  0  0  0
   -1.7947   -0.2553    2.7394 O   0  0  0  0  0  0  0  0  0  0  0  0
   -0.1017   -0.4626    1.0860 C   0  0  0  0  0  0  0  0  0  0  0  0
    0.3207   -1.6272    1.5214 C   0  0  0  0  0  0  0  0  0  0  0  0
    1.6326   -2.0115    1.3105 C   0  0  0  0  0  0  0  0  0  0  0  0
    2.5078   -1.1837    0.6455 C   0  0  0  0  0  0  0  0  0  0  0  0
    3.8391   -1.6006    0.4443 O   0  0  0  0  0  0  0  0  0  0  0  0
    2.0793    0.0375    0.1846 C   0  0  0  0  0  0  0  0  0  0  0  0
    2.9339    0.9274   -0.5058 N   0  0  0  0  0  0  0  0  0  0  0  0
    2.5584    2.1764   -0.9912 C   0  0  0  0  0  0  0  0  0  0  0  0
    3.3759    3.0897   -1.6836 N   0  0  0  0  0  0  0  0  0  0  0  0
    1.3481    2.5373   -0.7915 O   0  0  0  0  0  0  0  0  0  0  0  0
    0.7358    0.3918    0.4197 C   0  0  0  0  0  0  0  0  0  0  0  0
  1  2  1  0
  2  3  1  0
  2  4  1  0
  2  5  1  0
  5  6  1  0
  6  7  1  0
  7  8  1  1
  7  9  1  0
  9 10  2  0
 10 11  1  0
 11 12  2  0
 12 13  1  0
 12 14  1  0
 14 15  1  0
 15 16  1  0
 16 17  1  0
 16 18  2  0
 14 19  2  0
 19  9  1  0
M  END
>  <zinc_id>  (1) 
ZINC000000000124

>  <smiles>  (1) 
CC(C)(C)NC[C@@H](O)c1ccc(O)c(NC(N)=O)c1

$$$$
