
     RDKit          3D

 25 26  0  0  0  0  0  0  0  0999 V2000
   -7.7556   -1.6482   -0.5131 C   0  0  0  0  0  0  0  0  0  0  0  0
   -6.5555   -1.2427   -1.2983 C   0  0  0  0  0  0  0  0  0  0  0  0
   -6.8114   -0.2346   -2.3590 C   0  0  0  0  0  0  0  0  0  0  0  0
   -5.4347   -0.9514   -0.4785 O   0  0  0  0  0  0  0  0  0  0  0  0
   -4.2141   -0.5563   -0.9760 C   0  0  0  0  0  0  0  0  0  0  0  0
   -4.0899   -0.4498   -2.2153 O   0  0  0  0  0  0  0  0  0  0  0  0
   -3.0501   -0.2520   -0.1425 C   0  0  0  0  0  0  0  0  0  0  0  0
   -1.7972    0.1499   -0.5531 C   0  0  0  0  0  0  0  0  0  0  0  0
   -0.9698    0.3399    0.5295 C   0  0  0  0  0  0  0  0  0  0  0  0
    0.3865    0.7431    0.6661 C   0  0  0  0  0  0  0  0  0  0  0  0
    0.9931    0.9949   -0.5012 O   0  0  0  0  0  0  0  0  0  0  0  0
    2.2048    1.3762   -0.8898 C   0  0  0  0  0  0  0  0  0  0  0  0
    3.3765    0.3200   -0.5239 C   0  0  2  0  0  0  0  0  0  0  0  0
    3.2295    0.4009    0.9684 O   0  0  0  0  0  0  0  0  0  0  0  0
    4.5854    1.4789   -0.5599 C   0  0  0  0  0  0  0  0  0  0  0  0
    5.5798    0.8266    0.2816 N   0  0  0  0  0  0  0  0  0  0  0  0
    6.1367   -0.3430   -0.3386 C   0  0  0  0  0  0  0  0  0  0  0  0
    5.0551   -1.3682   -0.5657 C   0  0  0  0  0  0  0  0  0  0  0  0
    6.7915    0.0656   -1.6271 C   0  0  0  0  0  0  0  0  0  0  0  0
    7.1510   -0.9109    0.6628 C   0  0  0  0  0  0  0  0  0  0  0  0
    0.8976    0.8263    1.9490 C   0  0  0  0  0  0  0  0  0  0  0  0
    0.1519    0.5385    3.0605 C   0  0  0  0  0  0  0  0  0  0  0  0
   -1.1590    0.1512    2.8855 C   0  0  0  0  0  0  0  0  0  0  0  0
   -1.7323    0.0478    1.6275 C   0  0  0  0  0  0  0  0  0  0  0  0
   -2.9701   -0.3027    1.1998 N   0  0  0  0  0  0  0  0  0  0  0  0
  1  2  1  0
  2  3  1  0
  2  4  1  0
  4  5  1  0
  5  6  2  0
  5  7  1  0
  7  8  2  0
  8  9  1  0
  9 10  2  0
 10 11  1  0
 11 12  1  0
 12 13  1  0
 13 14  1  1
 13 15  1  0
 15 16  1  0
 16 17  1  0
 17 18  1  0
 17 19  1  0
 17 20  1  0
 10 21  1  0
 21 22  2  0
 22 23  1  0
 23 24  2  0
 24 25  1  0
 25  7  1  0
 24  9  1  0
M  END
>  <zinc_id>  (1) 
ZINC000000000127

>  <smiles>  (1) 
CC(C)OC(=O)c1cc2c(OC[C@H](O)CNC(C)(C)C)cccc2[nH]1

$$$$
