
     RDKit          3D

 20 20  0  0  0  0  0  0  0  0999 V2000
    3.3738   -3.2605    4.3992 C   0  0  0  0  0  0  0  0  0  0  0  0
    2.1769   -3.3825    3.8262 C   0  0  0  0  0  0  0  0  0  0  0  0
    1.1134   -2.3696    4.0816 C   0  0  0  0  0  0  0  0  0  0  0  0
    0.6902   -1.7154    2.7879 C   0  0  0  0  0  0  0  0  0  0  0  0
    1.3124   -0.5864    2.3323 C   0  0  0  0  0  0  0  0  0  0  0  0
    0.8924   -0.0195    1.1407 C   0  0  0  0  0  0  0  0  0  0  0  0
   -0.1319   -0.5719    0.4170 C   0  0  0  0  0  0  0  0  0  0  0  0
   -0.4924    0.0544   -0.7644 O   0  0  0  0  0  0  0  0  0  0  0  0
    0.1041    1.2008   -1.2716 C   0  0  0  0  0  0  0  0  0  0  0  0
   -0.5479    1.5702   -2.5510 C   0  0  0  0  0  0  0  0  0  0  0  0
   -1.4852    0.8572   -2.9758 O   0  0  0  0  0  0  0  0  0  0  0  0
   -0.1555    2.6983   -3.3167 N   0  0  0  0  0  0  0  0  0  0  0  0
   -0.8210    3.0191   -4.5583 C   0  0  0  0  0  0  0  0  0  0  0  0
   -1.9841    3.9327   -4.3029 C   0  0  0  0  0  0  0  0  0  0  0  0
    0.9205    3.5638   -2.8835 C   0  0  0  0  0  0  0  0  0  0  0  0
    0.2815    4.6591   -2.0204 C   0  0  0  0  0  0  0  0  0  0  0  0
   -0.7435   -1.6992    0.8846 C   0  0  0  0  0  0  0  0  0  0  0  0
   -1.7783   -2.2675    0.1655 O   0  0  0  0  0  0  0  0  0  0  0  0
   -2.3967   -3.4283    0.6580 C   0  0  0  0  0  0  0  0  0  0  0  0
   -0.3286   -2.2547    2.0566 C   0  0  0  0  0  0  0  0  0  0  0  0
  1  2  2  0
  2  3  1  0
  3  4  1  0
  4  5  2  0
  5  6  1  0
  6  7  2  0
  7  8  1  0
  8  9  1  0
  9 10  1  0
 10 11  2  0
 10 12  1  0
 12 13  1  0
 13 14  1  0
 12 15  1  0
 15 16  1  0
  7 17  1  0
 17 18  1  0
 18 19  1  0
 17 20  2  0
 20  4  1  0
M  END
>  <zinc_id>  (1) 
ZINC000000000007

>  <smiles>  (1) 
C=CCc1ccc(OCC(=O)N(CC)CC)c(OC)c1

$$$$
