
     RDKit          3D

 18 18  0  0  0  0  0  0  0  0999 V2000
    3.8540   -1.8864   -1.9395 C   0  0  0  0  0  0  0  0  0  0  0  0
    4.0411   -1.1107   -0.6199 C   0  0  0  0  0  0  0  0  0  0  0  0
    4.6617    0.2328   -0.8275 C   0  0  0  0  0  0  0  0  0  0  0  0
    5.1621   -1.9549    0.1307 C   0  0  0  0  0  0  0  0  0  0  0  0
    2.9436   -1.1448    0.2084 N   0  0  0  0  0  0  0  0  0  0  0  0
    1.6732   -0.7603    0.0253 C   0  0  0  0  0  0  0  0  0  0  0  0
    1.5392    0.8501   -0.1221 C   0  0  1  0  0  0  0  0  0  0  0  0
    2.3222    0.9529   -1.4243 O   0  0  0  0  0  0  0  0  0  0  0  0
    0.0602    0.7528   -0.9430 C   0  0  0  0  0  0  0  0  0  0  0  0
   -0.8378    0.6450    0.1200 O   0  0  0  0  0  0  0  0  0  0  0  0
   -2.1989    0.5299    0.0131 C   0  0  0  0  0  0  0  0  0  0  0  0
   -2.8061    0.5143   -1.2426 C   0  0  0  0  0  0  0  0  0  0  0  0
   -4.1592    0.4003   -1.3629 C   0  0  0  0  0  0  0  0  0  0  0  0
   -4.9165    0.3004   -0.2089 C   0  0  0  0  0  0  0  0  0  0  0  0
   -4.3353    0.3139    1.0464 C   0  0  0  0  0  0  0  0  0  0  0  0
   -2.9780    0.4286    1.1531 C   0  0  0  0  0  0  0  0  0  0  0  0
   -2.2868    0.4496    2.4296 C   0  0  0  0  0  0  0  0  0  0  0  0
   -1.7387    0.4866    3.4499 N   0  0  0  0  0  0  0  0  0  0  0  0
  1  2  1  0
  2  3  1  0
  2  4  1  0
  2  5  1  0
  5  6  1  0
  6  7  1  0
  7  8  1  6
  7  9  1  0
  9 10  1  0
 10 11  1  0
 11 12  2  0
 12 13  1  0
 13 14  2  0
 14 15  1  0
 15 16  2  0
 16 17  1  0
 17 18  3  0
 16 11  1  0
M  END
>  <zinc_id>  (1) 
ZINC000000000104

>  <smiles>  (1) 
CC(C)(C)NC[C@@H](O)COc1ccccc1C#N

$$$$
