
     RDKit          3D

 19 20  0  0  0  0  0  0  0  0999 V2000
    4.1539    0.9756    1.2607 C   0  0  0  0  0  0  0  0  0  0  0  0
    3.6774    0.6776   -0.1561 C   0  0  0  0  0  0  0  0  0  0  0  0
    2.6600    1.7656   -0.5168 C   0  0  0  0  0  0  0  0  0  0  0  0
    2.9467   -0.6424   -0.1013 C   0  0  0  0  0  0  0  0  0  0  0  0
    1.7577   -0.6013    0.8329 C   0  0  0  0  0  0  0  0  0  0  0  0
    0.8216    0.3597    0.4450 O   0  0  0  0  0  0  0  0  0  0  0  0
    0.4606   -0.1560   -0.9618 C   0  0  2  0  0  0  0  0  0  0  0  0
   -0.6345    1.0627   -1.2815 C   0  0  0  0  0  0  0  0  0  0  0  0
   -1.6286    0.9779   -0.2484 N   0  0  0  0  0  0  0  0  0  0  0  0
   -2.5982    2.0161   -0.5764 C   0  0  0  0  0  0  0  0  0  0  0  0
   -1.8732    3.3357   -0.3947 C   0  0  0  0  0  0  0  0  0  0  0  0
   -0.9582    3.0168    0.7663 C   0  0  0  0  0  0  0  0  0  0  0  0
   -1.1011    1.5474    1.0124 C   0  0  0  0  0  0  0  0  0  0  0  0
   -0.5372   -1.2963   -0.4572 C   0  0  0  0  0  0  0  0  0  0  0  0
   -0.3034   -2.4706   -1.1350 C   0  0  0  0  0  0  0  0  0  0  0  0
   -1.0875   -3.6022   -0.8290 C   0  0  0  0  0  0  0  0  0  0  0  0
   -2.0530   -3.4681    0.1404 C   0  0  0  0  0  0  0  0  0  0  0  0
   -2.2476   -2.2805    0.7861 C   0  0  0  0  0  0  0  0  0  0  0  0
   -1.4553   -1.2177    0.4457 C   0  0  0  0  0  0  0  0  0  0  0  0
  1  2  1  0
  2  3  1  0
  2  4  1  0
  4  5  1  0
  5  6  1  0
  6  7  1  0
  7  8  1  6
  8  9  1  0
  9 10  1  0
 10 11  1  0
 11 12  1  0
 12 13  1  0
  7 14  1  0
 14 15  2  0
 15 16  1  0
 16 17  2  0
 17 18  1  0
 18 19  2  0
 13  9  1  0
 19 14  1  0
M  END
>  <zinc_id>  (1) 
ZINC000000000035

>  <smiles>  (1) 
CC(C)CCO[C@H](CN1CCCC1)c1ccccc1

$$$$
