
     RDKit          3D

 15 15  0  0  0  0  0  0  0  0999 V2000
    4.9055   -1.1810    1.1305 C   0  0  0  0  0  0  0  0  0  0  0  0
    4.5961    0.1081    0.4080 C   0  0  0  0  0  0  0  0  0  0  0  0
    3.0973    0.4708    1.0801 C   0  0  1  0  0  0  0  0  0  0  0  0
    2.9898    1.8717    0.1539 C   0  0  0  0  0  0  0  0  0  0  0  0
    2.3480   -0.3882   -0.0239 N   0  0  0  0  0  0  0  0  0  0  0  0
    1.0265   -0.5494    0.3567 C   0  0  0  0  0  0  0  0  0  0  0  0
    0.2531    0.9269    0.2902 C   0  0  1  0  0  0  0  0  0  0  0  0
    0.5195    1.1192   -1.2191 O   0  0  0  0  0  0  0  0  0  0  0  0
   -1.2113    0.3044    0.0977 C   0  0  0  0  0  0  0  0  0  0  0  0
   -1.5621   -0.8024    0.7950 C   0  0  0  0  0  0  0  0  0  0  0  0
   -2.8434   -1.3440    0.6421 C   0  0  0  0  0  0  0  0  0  0  0  0
   -3.7007   -0.6954   -0.2394 C   0  0  0  0  0  0  0  0  0  0  0  0
   -5.0272   -1.1941   -0.4463 N   0  0  0  0  0  0  0  0  0  0  0  0
   -3.3283    0.4289   -0.9407 C   0  0  0  0  0  0  0  0  0  0  0  0
   -2.0627    0.9245   -0.7594 C   0  0  0  0  0  0  0  0  0  0  0  0
  1  2  1  0
  2  3  1  0
  3  4  1  6
  3  5  1  0
  5  6  1  0
  6  7  1  0
  7  8  1  6
  7  9  1  0
  9 10  2  0
 10 11  1  0
 11 12  2  0
 12 13  1  0
 12 14  1  0
 14 15  2  0
 15  9  1  0
M  END
>  <zinc_id>  (1) 
ZINC000000000034

>  <smiles>  (1) 
CC[C@@H](C)NC[C@@H](O)c1ccc(N)cc1

$$$$
