
     RDKit          3D

 16 17  0  0  0  0  0  0  0  0999 V2000
    0.1034    1.5898   -1.9496 O   0  0  0  0  0  0  0  0  0  0  0  0
   -0.2571    1.2168   -0.8297 C   0  0  0  0  0  0  0  0  0  0  0  0
   -1.4445    0.5576   -0.5604 C   0  0  0  0  0  0  0  0  0  0  0  0
   -1.8531    0.1360    0.7022 C   0  0  0  0  0  0  0  0  0  0  0  0
   -3.0657   -0.5223    0.8870 C   0  0  0  0  0  0  0  0  0  0  0  0
   -3.8945   -0.7704   -0.1983 C   0  0  0  0  0  0  0  0  0  0  0  0
   -3.4992   -0.3591   -1.4404 C   0  0  0  0  0  0  0  0  0  0  0  0
   -2.3102    0.2820   -1.5959 C   0  0  0  0  0  0  0  0  0  0  0  0
    0.8510    1.6079    0.2658 C   0  0  1  0  0  0  0  0  0  0  0  0
    0.1267    1.0279    1.4988 O   0  0  0  0  0  0  0  0  0  0  0  0
    1.7640    0.2924    0.0484 C   0  0  0  0  0  0  0  0  0  0  0  0
    2.3502   -0.2675    1.1250 C   0  0  0  0  0  0  0  0  0  0  0  0
    3.1443   -1.3790    0.9456 C   0  0  0  0  0  0  0  0  0  0  0  0
    3.3437   -1.9185   -0.3067 C   0  0  0  0  0  0  0  0  0  0  0  0
    2.7185   -1.3033   -1.3697 C   0  0  0  0  0  0  0  0  0  0  0  0
    1.9226   -0.1903   -1.1948 C   0  0  0  0  0  0  0  0  0  0  0  0
  1  2  2  0
  2  3  1  0
  3  4  2  0
  4  5  1  0
  5  6  2  0
  6  7  1  0
  7  8  2  0
  2  9  1  0
  9 10  1  1
  9 11  1  0
 11 12  2  0
 12 13  1  0
 13 14  2  0
 14 15  1  0
 15 16  2  0
  8  3  1  0
 16 11  1  0
M  END
>  <zinc_id>  (1) 
ZINC000000000076

>  <smiles>  (1) 
O=C(c1ccccc1)[C@@H](O)c1ccccc1

$$$$
