
     RDKit          3D

 20 21  0  0  0  0  0  0  0  0999 V2000
    4.5464    1.1719   -1.0723 C   0  0  0  0  0  0  0  0  0  0  0  0
    3.5974    1.5793   -0.0356 N   0  0  0  0  0  0  0  0  0  0  0  0
    2.4985    2.3098   -0.6342 C   0  0  0  0  0  0  0  0  0  0  0  0
    3.1218    0.4026    0.6730 C   0  0  0  0  0  0  0  0  0  0  0  0
    2.2760   -0.4281   -0.2320 C   0  0  0  0  0  0  0  0  0  0  0  0
    1.1560    0.2064   -0.7305 O   0  0  0  0  0  0  0  0  0  0  0  0
    0.3450    0.5867    0.5417 C   0  0  2  0  0  0  0  0  0  0  0  0
    0.1926   -0.9197    1.0253 C   0  0  0  0  0  0  0  0  0  0  0  0
   -0.1717   -1.9365    0.2807 C   0  0  0  0  0  0  0  0  0  0  0  0
   -0.2439   -3.1910    0.8729 C   0  0  0  0  0  0  0  0  0  0  0  0
    0.0558   -3.3668    2.1985 C   0  0  0  0  0  0  0  0  0  0  0  0
    0.4368   -2.3108    2.9838 C   0  0  0  0  0  0  0  0  0  0  0  0
    0.4950   -1.0647    2.3409 C   0  0  0  0  0  0  0  0  0  0  0  0
   -1.0130    0.7760   -0.2475 C   0  0  0  0  0  0  0  0  0  0  0  0
   -2.1662    0.2350    0.2384 C   0  0  0  0  0  0  0  0  0  0  0  0
   -3.3796    0.4012   -0.4642 C   0  0  0  0  0  0  0  0  0  0  0  0
   -3.4033    1.1041   -1.6320 C   0  0  0  0  0  0  0  0  0  0  0  0
   -5.0599    1.3243   -2.5805 Br  0  0  0  0  0  0  0  0  0  0  0  0
   -2.2419    1.6483   -2.1205 C   0  0  0  0  0  0  0  0  0  0  0  0
   -1.0419    1.4719   -1.4059 C   0  0  0  0  0  0  0  0  0  0  0  0
  1  2  1  0
  2  3  1  0
  2  4  1  0
  4  5  1  0
  5  6  1  0
  7  6  1  6
  7  8  1  0
  8  9  2  0
  9 10  1  0
 10 11  2  0
 11 12  1  0
 12 13  2  0
  7 14  1  0
 14 15  2  0
 15 16  1  0
 16 17  2  0
 17 18  1  0
 17 19  1  0
 19 20  2  0
 13  8  1  0
 20 14  1  0
M  END
>  <zinc_id>  (1) 
ZINC000000000095

>  <smiles>  (1) 
CN(C)CCO[C@H](c1ccccc1)c1ccc(Br)cc1

$$$$
