
     RDKit          3D

 15 15  0  0  0  0  0  0  0  0999 V2000
    4.2220    0.2340    0.0059 C   0  0  0  0  0  0  0  0  0  0  0  0
    2.9799    0.1058   -0.2449 O   0  0  0  0  0  0  0  0  0  0  0  0
    1.7039   -0.0605   -0.3771 C   0  0  0  0  0  0  0  0  0  0  0  0
    0.8655   -0.4817    0.6680 C   0  0  0  0  0  0  0  0  0  0  0  0
   -0.4893   -0.6609    0.5385 C   0  0  0  0  0  0  0  0  0  0  0  0
   -1.3612   -1.0712    1.6549 C   0  0  0  0  0  0  0  0  0  0  0  0
   -2.0387    0.2419    2.3494 C   0  0  1  0  0  0  0  0  0  0  0  0
   -0.5566    0.9165    2.7840 C   0  0  0  0  0  0  0  0  0  0  0  0
   -2.0895    1.1092    1.0351 N   0  0  0  0  0  0  0  0  0  0  0  0
   -1.0187   -0.4029   -0.7064 C   0  0  0  0  0  0  0  0  0  0  0  0
   -2.3931   -0.5859   -0.8531 O   0  0  0  0  0  0  0  0  0  0  0  0
   -2.9755   -0.3274   -2.1415 C   0  0  0  0  0  0  0  0  0  0  0  0
   -0.2228    0.0168   -1.7687 C   0  0  0  0  0  0  0  0  0  0  0  0
    1.1227    0.1948   -1.6375 C   0  0  0  0  0  0  0  0  0  0  0  0
    2.2514    0.7714   -3.0719 Br  0  0  0  0  0  0  0  0  0  0  0  0
  1  2  1  0
  2  3  1  0
  3  4  2  0
  4  5  1  0
  5  6  1  0
  6  7  1  0
  7  8  1  1
  7  9  1  0
  5 10  2  0
 10 11  1  0
 11 12  1  0
 10 13  1  0
 13 14  2  0
 14 15  1  0
 14  3  1  0
M  END
>  <zinc_id>  (1) 
ZINC000000000092

>  <smiles>  (1) 
COc1cc(C[C@@H](C)N)c(OC)cc1Br

$$$$
