
     RDKit          2D

 32 36  0  0  0  0  0  0  0  0999 V2000
   -6.4537   -1.8454    0.0000 C   0  0  0  0  0  0  0  0  0  0  0  0
   -5.2799   -0.9114    0.0000 C   0  0  0  0  0  0  0  0  0  0  0  0
   -6.3315    0.1582    0.0000 C   0  0  0  0  0  0  0  0  0  0  0  0
   -4.4737   -2.1764    0.0000 O   0  0  0  0  0  0  0  0  0  0  0  0
   -3.0216   -1.8006    0.0000 C   0  0  0  0  0  0  0  0  0  0  0  0
   -1.6259   -2.3501    0.0000 C   0  0  0  0  0  0  0  0  0  0  0  0
   -0.6719   -1.1924    0.0000 C   0  0  0  0  0  0  0  0  0  0  0  0
    0.8266   -1.1267    0.0000 C   0  0  0  0  0  0  0  0  0  0  0  0
    1.6328   -2.3917    0.0000 C   0  0  0  0  0  0  0  0  0  0  0  0
    3.1313   -2.3260    0.0000 C   0  0  0  0  0  0  0  0  0  0  0  0
    3.9375   -3.5909    0.0000 F   0  0  0  0  0  0  0  0  0  0  0  0
    3.8237   -0.9953    0.0000 C   0  0  0  0  0  0  0  0  0  0  0  0
    5.3223   -0.9296    0.0000 C   0  0  0  0  0  0  0  0  0  0  0  0
    6.0147    0.4010    0.0000 C   0  0  0  0  0  0  0  0  0  0  0  0
    7.5132    0.4667    0.0000 O   0  0  0  0  0  0  0  0  0  0  0  0
    5.2085    1.6659    0.0000 C   0  0  0  0  0  0  0  0  0  0  0  0
    3.7099    1.6002    0.0000 C   0  0  0  0  0  0  0  0  0  0  0  0
    3.0176    0.2696    0.0000 C   0  0  0  0  0  0  0  0  0  0  0  0
    2.6361    1.0690    0.0000 C   0  0  0  0  0  0  0  0  0  0  0  0
    1.5190    0.2039    0.0000 C   0  0  0  0  0  0  0  0  0  0  0  0
    1.8290    1.0336    0.0000 F   0  0  0  0  0  0  0  0  0  0  0  0
    0.7128    1.4688    0.0000 C   0  0  0  0  0  0  0  0  0  0  0  0
    1.4052    2.7995    0.0000 O   0  0  0  0  0  0  0  0  0  0  0  0
   -0.7857    1.4031    0.0000 C   0  0  0  0  0  0  0  0  0  0  0  0
   -1.4781    0.0725    0.0000 C   0  0  0  0  0  0  0  0  0  0  0  0
   -1.8088    0.7978    0.0000 C   0  0  0  0  0  0  0  0  0  0  0  0
   -2.9303   -0.3033    0.0000 C   0  0  0  0  0  0  0  0  0  0  0  0
   -2.8390    1.1939    0.0000 C   0  0  0  0  0  0  0  0  0  0  0  0
   -2.1256    1.5497    0.0000 O   0  0  0  0  0  0  0  0  0  0  0  0
   -4.0900    2.0216    0.0000 C   0  0  0  0  0  0  0  0  0  0  0  0
   -3.9987    3.5188    0.0000 O   0  0  0  0  0  0  0  0  0  0  0  0
   -4.3260    0.2462    0.0000 O   0  0  0  0  0  0  0  0  0  0  0  0
  1  2  1  0
  2  3  1  0
  2  4  1  0
  4  5  1  0
  5  6  1  6
  7  6  1  1
  7  8  1  0
  8  9  1  1
  9 10  1  0
 10 11  1  1
 10 12  1  0
 12 13  2  0
 13 14  1  0
 14 15  2  0
 14 16  1  0
 16 17  2  0
 17 18  1  0
 18 19  1  6
 18 20  1  0
 20 21  1  6
 20 22  1  0
 22 23  1  1
 22 24  1  0
 24 25  1  0
 25 26  1  1
 25 27  1  0
 27 28  1  6
 28 29  2  0
 28 30  1  0
 30 31  1  0
 27 32  1  0
 32  2  1  0
 27  5  1  0
 25  7  1  0
 20  8  1  0
 18 12  1  0
M  END
>  <zinc_id>  (1) 
ZINC000000000026

>  <smiles>  (1) 
CC1(C)O[C@H]2C[C@@H]3[C@@H]4C[C@H](F)C5=CC(=O)C=C[C@]5(C)[C@]4(F)[C@H](O)C[C@@]3(C)[C@]2(C(=O)CO)O1

$$$$
