
     RDKit          3D

 22 24  0  0  0  0  0  0  0  0999 V2000
   -2.6993    1.3628   -1.2446 C   0  0  0  0  0  0  0  0  0  0  0  0
   -3.5346    0.9213   -0.2462 N   0  0  0  0  0  4  0  0  0  0  0  0
   -4.8205    1.3983   -0.3374 O   0  0  0  0  0  1  0  0  0  0  0  0
   -3.1570    1.4776    1.1426 C   0  0  1  0  0  0  0  0  0  0  0  0
   -4.1224    0.4871    1.9542 C   0  0  0  0  0  0  0  0  0  0  0  0
   -3.5741   -0.7329    1.5586 C   0  0  0  0  0  0  0  0  0  0  0  0
   -3.7183   -0.5748   -0.0865 C   0  0  2  0  0  0  0  0  0  0  0  0
   -2.2153   -1.0545   -0.3179 C   0  0  0  0  0  0  0  0  0  0  0  0
   -1.3002    0.1206    0.0046 C   0  0  0  0  0  0  0  0  0  0  0  0
   -0.1132   -0.5199    0.4754 O   0  0  0  0  0  0  0  0  0  0  0  0
    0.6919   -1.1227   -0.3262 C   0  0  0  0  0  0  0  0  0  0  0  0
    0.4584   -1.1537   -1.6194 O   0  0  0  0  0  0  0  0  0  0  0  0
    2.0345   -1.8761   -0.0023 C   0  0  2  0  0  0  0  0  0  0  0  0
    2.0224   -1.5306    1.6642 C   0  0  0  0  0  0  0  0  0  0  0  0
    1.9608   -0.1557    1.7530 O   0  0  0  0  0  0  0  0  0  0  0  0
    3.0457   -0.5958   -0.2549 C   0  0  0  0  0  0  0  0  0  0  0  0
    2.6342    0.6480   -0.3312 C   0  0  0  0  0  0  0  0  0  0  0  0
    3.5214    1.6877   -0.5155 C   0  0  0  0  0  0  0  0  0  0  0  0
    4.8943    1.3879   -0.6129 C   0  0  0  0  0  0  0  0  0  0  0  0
    5.2908    0.0410   -0.5306 C   0  0  0  0  0  0  0  0  0  0  0  0
    4.3968   -0.9732   -0.3536 C   0  0  0  0  0  0  0  0  0  0  0  0
   -1.6963    0.7577    1.3147 C   0  0  0  0  0  0  0  0  0  0  0  0
  1  2  1  0
  2  3  1  0
  2  4  1  0
  4  5  1  1
  5  6  1  0
  7  6  1  1
  7  8  1  0
  8  9  1  0
  9 10  1  0
 10 11  1  0
 11 12  2  0
 11 13  1  0
 13 14  1  1
 14 15  1  0
 13 16  1  0
 16 17  2  0
 17 18  1  0
 18 19  2  0
 19 20  1  0
 20 21  2  0
  9 22  1  0
  7  2  1  0
 21 16  1  0
 22  4  1  0
M  CHG  2   2   1   3  -1
M  END
>  <zinc_id>  (1) 
ZINC000000000058

>  <smiles>  (1) 
C[N+]1([O-])[C@H]2CC[C@@H]1CC(OC(=O)[C@H](CO)c1ccccc1)C2

$$$$
