
     RDKit          3D

 24 26  0  0  0  0  0  0  0  0999 V2000
   -0.9518    1.1337    1.5728 O   0  0  0  0  0  0  0  0  0  0  0  0
   -0.7394    0.4764    0.5742 C   0  0  0  0  0  0  0  0  0  0  0  0
    0.4323   -0.2410    0.3171 O   0  0  0  0  0  0  0  0  0  0  0  0
    1.4348   -0.1670    1.3390 C   0  0  0  0  0  0  0  0  0  0  0  0
    2.5926   -0.9973    0.8654 C   0  0  0  0  0  0  0  0  0  0  0  0
    3.1185   -0.4827   -0.3979 N   0  0  0  0  0  0  0  0  0  0  0  0
    4.2243   -1.2788   -0.8464 C   0  0  0  0  0  0  0  0  0  0  0  0
    5.2921   -1.4544    0.1805 C   0  0  0  0  0  0  0  0  0  0  0  0
    5.5327   -0.2428    1.0278 C   0  0  0  0  0  0  0  0  0  0  0  0
    5.9083    0.9750    0.1793 C   0  0  0  0  0  0  0  0  0  0  0  0
    4.8061    1.1638   -0.8410 C   0  0  0  0  0  0  0  0  0  0  0  0
    3.4536    0.9194   -0.2275 C   0  0  0  0  0  0  0  0  0  0  0  0
   -1.8357    0.3667   -0.5950 C   0  0  1  0  0  0  0  0  0  0  0  0
   -2.0181   -1.1904   -0.6147 C   0  0  0  0  0  0  0  0  0  0  0  0
   -1.0221   -2.0260   -0.3735 C   0  0  0  0  0  0  0  0  0  0  0  0
   -1.2706   -3.3678   -0.4481 C   0  0  0  0  0  0  0  0  0  0  0  0
   -2.9186   -3.4195   -0.8602 S   0  0  0  0  0  0  0  0  0  0  0  0
   -3.2300   -1.7152   -0.9218 C   0  0  0  0  0  0  0  0  0  0  0  0
   -3.1347    0.7134    0.3589 C   0  0  0  0  0  0  0  0  0  0  0  0
   -4.2566    0.6327   -0.6835 C   0  0  0  0  0  0  0  0  0  0  0  0
   -5.1223    1.8825   -0.6348 C   0  0  0  0  0  0  0  0  0  0  0  0
   -4.3776    3.1105   -1.0831 C   0  0  0  0  0  0  0  0  0  0  0  0
   -2.9373    3.0232   -0.5942 C   0  0  0  0  0  0  0  0  0  0  0  0
   -2.9805    2.1857    0.6873 C   0  0  0  0  0  0  0  0  0  0  0  0
  1  2  2  0
  2  3  1  0
  3  4  1  0
  4  5  1  0
  5  6  1  0
  6  7  1  0
  7  8  1  0
  8  9  1  0
  9 10  1  0
 10 11  1  0
 11 12  1  0
 13  2  1  1
 13 14  1  0
 14 15  1  0
 15 16  2  0
 16 17  1  0
 17 18  1  0
 13 19  1  0
 19 20  1  0
 20 21  1  0
 21 22  1  0
 22 23  1  0
 23 24  1  0
 12  6  1  0
 18 14  2  0
 24 19  1  0
M  END
>  <zinc_id>  (1) 
ZINC000000000132

>  <smiles>  (1) 
O=C(OCCN1CCCCCC1)[C@@H](c1ccsc1)C1CCCCC1

$$$$
