
     RDKit          3D

 19 22  0  0  0  0  0  0  0  0999 V2000
   -2.4087   -3.0257   -1.2879 C   0  0  0  0  0  0  0  0  0  0  0  0
   -2.2025   -2.5348    0.0238 N   0  0  0  0  0  0  0  0  0  0  0  0
   -1.0444   -3.0500    0.6964 C   0  0  0  0  0  0  0  0  0  0  0  0
   -0.0464   -1.9958    1.0435 C   0  0  0  0  0  0  0  0  0  0  0  0
    0.0335   -0.8994    0.1528 N   0  0  0  0  0  0  0  0  0  0  0  0
    1.2980   -0.3127    0.1744 C   0  0  0  0  0  0  0  0  0  0  0  0
    2.3123   -1.1601    0.6397 C   0  0  0  0  0  0  0  0  0  0  0  0
    3.6200   -0.8079    0.7466 C   0  0  0  0  0  0  0  0  0  0  0  0
    3.9934    0.4804    0.3718 C   0  0  0  0  0  0  0  0  0  0  0  0
    3.0240    1.3261   -0.0851 C   0  0  0  0  0  0  0  0  0  0  0  0
    1.7111    0.9536   -0.1859 C   0  0  0  0  0  0  0  0  0  0  0  0
    0.8905    2.0336   -0.6929 C   0  0  0  0  0  0  0  0  0  0  0  0
   -0.4773    2.0125   -0.3135 N   0  0  0  0  0  0  0  0  0  0  0  0
   -1.0725    3.1521    0.1175 C   0  0  0  0  0  0  0  0  0  0  0  0
   -2.3818    2.8689    0.4169 C   0  0  0  0  0  0  0  0  0  0  0  0
   -2.5030    1.4950    0.1313 C   0  0  0  0  0  0  0  0  0  0  0  0
   -1.3205    1.0159   -0.3100 C   0  0  0  0  0  0  0  0  0  0  0  0
   -1.1155   -0.4391   -0.7236 C   0  0  2  0  0  0  0  0  0  0  0  0
   -2.3103   -1.1128    0.1739 C   0  0  0  0  0  0  0  0  0  0  0  0
  1  2  1  0
  2  3  1  0
  3  4  1  0
  4  5  1  0
  5  6  1  0
  6  7  2  0
  7  8  1  0
  8  9  2  0
  9 10  1  0
 10 11  2  0
 11 12  1  0
 12 13  1  0
 13 14  1  0
 14 15  2  0
 15 16  1  0
 16 17  2  0
 17 18  1  0
 18 19  1  1
 19  2  1  0
 18  5  1  0
 11  6  1  0
 17 13  1  0
M  END
>  <zinc_id>  (1) 
ZINC000000000050

>  <smiles>  (1) 
CN1CCN2c3ccccc3Cn3cccc3[C@@H]2C1

$$$$
