
     RDKit          3D

 32 36  0  0  0  0  0  0  0  0999 V2000
    5.2110    1.7980    2.4409 C   0  0  0  0  0  0  0  0  0  0  0  0
    4.9745    0.1659    2.1368 C   0  0  2  0  0  0  0  0  0  0  0  0
    4.8597    0.3101    0.6063 O   0  0  0  0  0  0  0  0  0  0  0  0
    4.0741   -0.4303   -0.1537 C   0  0  0  0  0  0  0  0  0  0  0  0
    4.4742   -0.7068   -1.4758 C   0  0  0  0  0  0  0  0  0  0  0  0
    3.6310   -1.4825   -2.2430 C   0  0  0  0  0  0  0  0  0  0  0  0
    2.4412   -1.9800   -1.7636 C   0  0  0  0  0  0  0  0  0  0  0  0
    2.0598   -1.7033   -0.4689 C   0  0  0  0  0  0  0  0  0  0  0  0
    2.8820   -0.9316    0.3193 C   0  0  0  0  0  0  0  0  0  0  0  0
    2.5425   -0.6097    1.6760 N   0  0  0  0  0  0  0  0  0  0  0  0
    1.3245   -1.0787    2.2765 C   0  0  0  0  0  0  0  0  0  0  0  0
    0.1964   -0.1794    2.0902 C   0  0  0  0  0  0  0  0  0  0  0  0
   -0.9314   -0.5208    2.6277 O   0  0  0  0  0  0  0  0  0  0  0  0
    0.2913    1.0238    1.3581 N   0  0  0  0  0  0  0  0  0  0  0  0
    1.4204    1.4784    0.7319 C   0  0  0  0  0  0  0  0  0  0  0  0
    1.3661    1.9337   -0.6790 C   0  0  0  0  0  0  0  0  0  0  0  0
    0.0541    2.6731   -0.8171 C   0  0  0  0  0  0  0  0  0  0  0  0
   -0.4205    3.1340    0.4715 C   0  0  0  0  0  0  0  0  0  0  0  0
   -1.0637    1.8533    1.3112 C   0  0  1  0  0  0  0  0  0  0  0  0
   -1.7329    1.1203    0.0313 C   0  0  0  0  0  0  0  0  0  0  0  0
   -3.0200    0.7631    0.0626 N   0  0  0  0  0  0  0  0  0  0  0  0
   -3.2875    0.1871   -1.1184 C   0  0  0  0  0  0  0  0  0  0  0  0
   -4.5387   -0.3806   -1.6099 C   0  0  0  0  0  0  0  0  0  0  0  0
   -5.6719   -0.3788   -0.8337 C   0  0  0  0  0  0  0  0  0  0  0  0
   -6.8842   -0.9104   -1.2663 C   0  0  0  0  0  0  0  0  0  0  0  0
   -6.9088   -1.4511   -2.5293 C   0  0  0  0  0  0  0  0  0  0  0  0
   -5.8075   -1.4648   -3.3118 N   0  0  0  0  0  0  0  0  0  0  0  0
   -4.6283   -0.9379   -2.8678 C   0  0  0  0  0  0  0  0  0  0  0  0
   -2.1191    0.2437   -1.7803 N   0  0  0  0  0  0  0  0  0  0  0  0
   -1.2122    0.8131   -1.0503 O   0  0  0  0  0  0  0  0  0  0  0  0
    3.3882    0.1608    2.4413 C   0  0  0  0  0  0  0  0  0  0  0  0
    3.0356    0.8826    3.3876 O   0  0  0  0  0  0  0  0  0  0  0  0
  2  1  1  1
  2  3  1  0
  3  4  1  0
  4  5  2  0
  5  6  1  0
  6  7  2  0
  7  8  1  0
  8  9  2  0
  9 10  1  0
 10 11  1  0
 11 12  1  0
 12 13  2  0
 12 14  1  0
 14 15  1  0
 15 16  1  0
 16 17  1  0
 17 18  1  0
 18 19  1  0
 19 20  1  6
 20 21  2  0
 21 22  1  0
 22 23  1  0
 23 24  2  0
 24 25  1  0
 25 26  2  0
 26 27  1  0
 27 28  2  0
 22 29  2  0
 29 30  1  0
 10 31  1  0
 31 32  2  0
 31  2  1  0
  9  4  1  0
 19 14  1  0
 30 20  1  0
 28 23  1  0
M  END
>  <zinc_id>  (1) 
ZINC000000000033

>  <smiles>  (1) 
C[C@@H]1Oc2ccccc2N(CC(=O)N2CCCC[C@H]2c2nc(-c3cccnc3)no2)C1=O

$$$$
