
     RDKit          3D

 13 13  0  0  0  0  0  0  0  0999 V2000
   -0.9417    2.9247    1.3523 C   0  0  0  0  0  0  0  0  0  0  0  0
   -0.9955    2.0063    0.5732 C   0  0  0  0  0  0  0  0  0  0  0  0
   -1.0773    0.8150   -0.4769 C   0  0  2  0  0  0  0  0  0  0  0  0
   -1.6283   -0.2077    0.5203 O   0  0  0  0  0  0  0  0  0  0  0  0
   -1.8495   -1.4396   -0.0265 C   0  0  0  0  0  0  0  0  0  0  0  0
   -2.3700   -2.5527    0.7460 N   0  0  0  0  0  0  0  0  0  0  0  0
   -1.5846   -1.5879   -1.2439 O   0  0  0  0  0  0  0  0  0  0  0  0
    0.4696    0.3700   -0.3332 C   0  0  0  0  0  0  0  0  0  0  0  0
    1.1619    0.2331   -1.4966 C   0  0  0  0  0  0  0  0  0  0  0  0
    2.5028   -0.1511   -1.3719 C   0  0  0  0  0  0  0  0  0  0  0  0
    3.0587   -0.3696   -0.1348 C   0  0  0  0  0  0  0  0  0  0  0  0
    2.2954   -0.2114    1.0014 C   0  0  0  0  0  0  0  0  0  0  0  0
    0.9585    0.1710    0.8906 C   0  0  0  0  0  0  0  0  0  0  0  0
  1  2  3  0
  3  2  1  1
  3  4  1  0
  4  5  1  0
  5  6  1  0
  5  7  2  0
  3  8  1  0
  8  9  2  0
  9 10  1  0
 10 11  2  0
 11 12  1  0
 12 13  2  0
 13  8  1  0
M  END
>  <zinc_id>  (1) 
ZINC000000000125

>  <smiles>  (1) 
C#C[C@H](OC(N)=O)c1ccccc1

$$$$
