
     RDKit          3D

 19 20  0  0  0  0  0  0  0  0999 V2000
    4.8407    2.2186   -0.8193 C   0  0  0  0  0  0  0  0  0  0  0  0
    4.2015    1.1376    0.0238 C   0  0  0  0  0  0  0  0  0  0  0  0
    4.7716   -0.1940   -0.3703 C   0  0  0  0  0  0  0  0  0  0  0  0
    3.9476   -1.4396    0.6934 S   0  0  0  0  0  4  0  0  0  0  0  0
    4.3162   -2.7534   -0.0348 O   0  0  0  0  0  0  0  0  0  0  0  0
    2.2213   -1.2011    0.2428 C   0  0  0  0  0  0  0  0  0  0  0  0
    1.5983   -1.8527   -0.7592 C   0  0  0  0  0  0  0  0  0  0  0  0
    0.2717   -1.6063   -1.0337 C   0  0  0  0  0  0  0  0  0  0  0  0
   -0.4794   -0.6959   -0.3122 C   0  0  0  0  0  0  0  0  0  0  0  0
   -1.7504   -0.2532   -0.3402 N   0  0  0  0  0  0  0  0  0  0  0  0
   -1.9235    0.6600    0.6263 C   0  0  0  0  0  0  0  0  0  0  0  0
   -3.0306    1.2686    0.8557 N   0  0  0  0  0  0  0  0  0  0  0  0
   -4.1378    0.9482    0.0281 C   0  0  0  0  0  0  0  0  0  0  0  0
   -4.1892   -0.0187   -0.7520 O   0  0  0  0  0  0  0  0  0  0  0  0
   -5.2415    1.7877    0.1058 O   0  0  0  0  0  0  0  0  0  0  0  0
   -6.3782    1.5369   -0.6830 C   0  0  0  0  0  0  0  0  0  0  0  0
   -0.7373    0.7876    1.2677 N   0  0  0  0  0  0  0  0  0  0  0  0
    0.1860   -0.0455    0.7060 C   0  0  0  0  0  0  0  0  0  0  0  0
    1.5131   -0.2846    0.9892 C   0  0  0  0  0  0  0  0  0  0  0  0
  1  2  1  0
  2  3  1  0
  4  3  1  6
  4  5  2  0
  4  6  1  0
  6  7  2  0
  7  8  1  0
  8  9  2  0
  9 10  1  0
 10 11  1  0
 11 12  2  0
 12 13  1  0
 13 14  2  0
 13 15  1  0
 15 16  1  0
 11 17  1  0
 17 18  1  0
 18 19  2  0
 19  6  1  0
 18  9  1  0
M  END
>  <zinc_id>  (1) 
ZINC000000000017

>  <smiles>  (1) 
CCC[S@](=O)c1ccc2[nH]/c(=N\C(=O)OC)[nH]c2c1

$$$$
