
     RDKit          3D

 23 24  0  0  0  0  0  0  0  0999 V2000
   -4.3761    2.4307    0.4969 C   0  0  0  0  0  0  0  0  0  0  0  0
   -4.1499    1.7044   -0.8111 C   0  0  0  0  0  0  0  0  0  0  0  0
   -5.0167    0.4818   -0.9155 C   0  0  0  0  0  0  0  0  0  0  0  0
   -4.4527    2.6945   -1.9211 C   0  0  0  0  0  0  0  0  0  0  0  0
   -2.7304    1.4236   -0.8839 N   0  0  0  0  0  0  0  0  0  0  0  0
   -2.4022    0.5591    0.2033 C   0  0  0  0  0  0  0  0  0  0  0  0
   -3.1640   -0.8200   -0.2155 C   0  0  1  0  0  0  0  0  0  0  0  0
   -2.4014   -0.9767   -1.5062 O   0  0  0  0  0  0  0  0  0  0  0  0
   -2.1904   -1.8041    0.6329 C   0  0  0  0  0  0  0  0  0  0  0  0
   -0.9172   -1.3079    0.5996 O   0  0  0  0  0  0  0  0  0  0  0  0
    0.2415   -1.7059    1.1093 C   0  0  0  0  0  0  0  0  0  0  0  0
    0.4281   -2.8312    1.8641 C   0  0  0  0  0  0  0  0  0  0  0  0
    1.6417   -3.2255    2.3836 C   0  0  0  0  0  0  0  0  0  0  0  0
    2.7423   -2.4323    2.1252 C   0  0  0  0  0  0  0  0  0  0  0  0
    2.6029   -1.3084    1.3820 C   0  0  0  0  0  0  0  0  0  0  0  0
    1.3915   -0.9207    0.8670 C   0  0  0  0  0  0  0  0  0  0  0  0
    1.2406    0.2015    0.1232 O   0  0  0  0  0  0  0  0  0  0  0  0
    2.0390    1.1849   -0.3325 C   0  0  0  0  0  0  0  0  0  0  0  0
    3.1205    0.4684   -1.2997 C   0  0  2  0  0  0  0  0  0  0  0  0
    4.2549    0.2605   -0.1390 C   0  0  0  0  0  0  0  0  0  0  0  0
    4.5282    1.6225    0.3419 C   0  0  0  0  0  0  0  0  0  0  0  0
    3.7945    2.5128   -0.5974 C   0  0  0  0  0  0  0  0  0  0  0  0
    3.7752    1.7883   -1.7353 O   0  0  0  0  0  0  0  0  0  0  0  0
  1  2  1  0
  2  3  1  0
  2  4  1  0
  2  5  1  0
  5  6  1  0
  6  7  1  0
  7  8  1  6
  7  9  1  0
  9 10  1  0
 10 11  1  0
 11 12  2  0
 12 13  1  0
 13 14  2  0
 14 15  1  0
 15 16  2  0
 16 17  1  0
 17 18  1  0
 19 18  1  1
 19 20  1  0
 20 21  1  0
 21 22  1  0
 22 23  1  0
 16 11  1  0
 23 19  1  0
M  END
>  <zinc_id>  (1) 
ZINC000000000101

>  <smiles>  (1) 
CC(C)(C)NC[C@@H](O)COc1ccccc1OC[C@@H]1CCCO1

$$$$
