
     RDKit          3D

 22 22  0  0  0  0  0  0  0  0999 V2000
   -4.2672   -1.5288    2.2183 C   0  0  0  0  0  0  0  0  0  0  0  0
   -3.6223   -0.4380    1.5166 N   0  0  0  0  0  0  0  0  0  0  0  0
   -4.3304    0.8014    1.3631 C   0  0  0  0  0  0  0  0  0  0  0  0
   -5.4713    0.8650    1.8491 O   0  0  0  0  0  0  0  0  0  0  0  0
   -3.7364    1.9424    0.6653 C   0  0  0  0  0  0  0  0  0  0  0  0
   -2.4427    1.6885    0.1768 O   0  0  0  0  0  0  0  0  0  0  0  0
   -2.2017    0.6811   -0.7413 C   0  0  0  0  0  0  0  0  0  0  0  0
   -3.1778   -0.1267   -1.2336 C   0  0  0  0  0  0  0  0  0  0  0  0
   -2.9404   -1.1377   -2.1537 C   0  0  0  0  0  0  0  0  0  0  0  0
   -1.6587   -1.3380   -2.5933 C   0  0  0  0  0  0  0  0  0  0  0  0
   -0.6629   -0.5431   -2.1167 C   0  0  0  0  0  0  0  0  0  0  0  0
   -0.9154    0.4716   -1.1899 C   0  0  0  0  0  0  0  0  0  0  0  0
    0.0811    1.2745   -0.7058 O   0  0  0  0  0  0  0  0  0  0  0  0
    1.4274    1.1956   -1.0573 C   0  0  0  0  0  0  0  0  0  0  0  0
    1.9233   -0.3212   -0.6372 C   0  0  2  0  0  0  0  0  0  0  0  0
    1.5767   -0.1020    0.8395 O   0  0  0  0  0  0  0  0  0  0  0  0
    3.4920    0.1718   -0.4078 C   0  0  0  0  0  0  0  0  0  0  0  0
    4.0037   -0.7636    0.5612 N   0  0  0  0  0  0  0  0  0  0  0  0
    5.3760   -0.3887    0.8260 C   0  0  0  0  0  0  0  0  0  0  0  0
    5.3342    1.0134    1.4299 C   0  0  0  0  0  0  0  0  0  0  0  0
    6.2239   -0.3094   -0.4245 C   0  0  0  0  0  0  0  0  0  0  0  0
    5.9887   -1.3332    1.8153 C   0  0  0  0  0  0  0  0  0  0  0  0
  1  2  1  0
  2  3  1  0
  3  4  2  0
  3  5  1  0
  5  6  1  0
  6  7  1  0
  7  8  2  0
  8  9  1  0
  9 10  2  0
 10 11  1  0
 11 12  2  0
 12 13  1  0
 13 14  1  0
 14 15  1  0
 15 16  1  1
 15 17  1  0
 17 18  1  0
 18 19  1  0
 19 20  1  0
 19 21  1  0
 19 22  1  0
 12  7  1  0
M  END
>  <zinc_id>  (1) 
ZINC000000000131

>  <smiles>  (1) 
CNC(=O)COc1ccccc1OC[C@H](O)CNC(C)(C)C

$$$$
