
     RDKit          3D

 21 22  0  0  0  0  0  0  0  0999 V2000
   -4.9129    2.7051    0.8299 C   0  0  0  0  0  0  0  0  0  0  0  0
   -3.5691    2.5340    0.2082 C   0  0  0  0  0  0  0  0  0  0  0  0
   -2.9933    3.4800   -0.3694 O   0  0  0  0  0  0  0  0  0  0  0  0
   -2.8958    1.2449    0.2633 C   0  0  0  0  0  0  0  0  0  0  0  0
   -3.4155    0.1133    0.8696 C   0  0  0  0  0  0  0  0  0  0  0  0
   -2.4652   -0.8734    0.6929 C   0  0  0  0  0  0  0  0  0  0  0  0
   -2.3970   -2.1903    1.0611 C   0  0  0  0  0  0  0  0  0  0  0  0
   -1.3054   -2.9744    0.7521 C   0  0  0  0  0  0  0  0  0  0  0  0
   -0.2837   -2.3843    0.0585 C   0  0  0  0  0  0  0  0  0  0  0  0
   -0.2873   -1.0585   -0.3448 C   0  0  0  0  0  0  0  0  0  0  0  0
    0.6909   -0.5067   -1.0054 O   0  0  0  0  0  0  0  0  0  0  0  0
    1.8659   -0.6008   -1.5676 C   0  0  0  0  0  0  0  0  0  0  0  0
    3.0756   -1.0174   -0.5501 C   0  0  2  0  0  0  0  0  0  0  0  0
    2.4602   -2.3350   -0.1459 O   0  0  0  0  0  0  0  0  0  0  0  0
    2.4292   -0.1953    0.7147 C   0  0  0  0  0  0  0  0  0  0  0  0
    2.9323    1.1589    0.4839 N   0  0  0  0  0  0  0  0  0  0  0  0
    4.3679    1.1843    0.6869 C   0  0  0  0  0  0  0  0  0  0  0  0
    4.7813    0.8415    2.0800 C   0  0  0  0  0  0  0  0  0  0  0  0
    5.0639    0.2601   -0.2959 C   0  0  0  0  0  0  0  0  0  0  0  0
   -1.4142   -0.3203   -0.0042 C   0  0  0  0  0  0  0  0  0  0  0  0
   -1.7280    0.9342   -0.2291 O   0  0  0  0  0  0  0  0  0  0  0  0
  1  2  1  0
  2  3  2  0
  2  4  1  0
  4  5  2  0
  5  6  1  0
  6  7  2  0
  7  8  1  0
  8  9  2  0
  9 10  1  0
 10 11  1  0
 11 12  1  0
 12 13  1  0
 13 14  1  1
 13 15  1  0
 15 16  1  0
 16 17  1  0
 17 18  1  0
 17 19  1  0
 10 20  2  0
 20 21  1  0
 21  4  1  0
 20  6  1  0
M  END
>  <zinc_id>  (1) 
ZINC000000000063

>  <smiles>  (1) 
CC(=O)c1cc2cccc(OC[C@H](O)CNC(C)C)c2o1

$$$$
