
     RDKit          3D

 21 23  0  0  0  0  0  0  0  0999 V2000
   -3.6381    2.1213    0.3915 C   0  0  0  0  0  0  0  0  0  0  0  0
   -4.2354    1.0144   -0.1938 N   0  0  0  0  0  0  0  0  0  0  0  0
   -4.1902   -0.1978    0.7704 C   0  0  1  0  0  0  0  0  0  0  0  0
   -4.3945   -1.3300   -0.4101 C   0  0  0  0  0  0  0  0  0  0  0  0
   -3.2293   -1.0350   -1.1454 C   0  0  0  0  0  0  0  0  0  0  0  0
   -3.5429    0.5370   -1.4841 C   0  0  2  0  0  0  0  0  0  0  0  0
   -2.1007    1.0588   -1.0391 C   0  0  0  0  0  0  0  0  0  0  0  0
   -1.6938    0.4988    0.2556 C   0  0  0  0  0  0  0  0  0  0  0  0
   -0.7776   -0.5664   -0.2362 O   0  0  0  0  0  0  0  0  0  0  0  0
    0.5583   -0.3356   -0.0024 C   0  0  0  0  0  0  0  0  0  0  0  0
    0.8348    0.7864    0.5322 O   0  0  0  0  0  0  0  0  0  0  0  0
    1.6906   -1.3376   -0.3829 C   0  0  2  0  0  0  0  0  0  0  0  0
    1.7610   -2.0598    1.0975 C   0  0  0  0  0  0  0  0  0  0  0  0
    2.7493   -2.9933    0.8155 O   0  0  0  0  0  0  0  0  0  0  0  0
    2.8767   -0.2954   -0.1539 C   0  0  0  0  0  0  0  0  0  0  0  0
    2.8798    0.7849   -0.9782 C   0  0  0  0  0  0  0  0  0  0  0  0
    3.7886    1.7969   -0.8720 C   0  0  0  0  0  0  0  0  0  0  0  0
    4.7650    1.7096    0.1373 C   0  0  0  0  0  0  0  0  0  0  0  0
    4.6997    0.6065    0.9000 C   0  0  0  0  0  0  0  0  0  0  0  0
    3.7947   -0.4481    0.8254 C   0  0  0  0  0  0  0  0  0  0  0  0
   -2.5958   -0.3154    1.0345 C   0  0  0  0  0  0  0  0  0  0  0  0
  1  2  1  0
  2  3  1  0
  3  4  1  6
  4  5  1  0
  6  5  1  1
  6  7  1  0
  7  8  1  0
  8  9  1  0
  9 10  1  0
 10 11  2  0
 10 12  1  0
 12 13  1  1
 13 14  1  0
 12 15  1  0
 15 16  2  0
 16 17  1  0
 17 18  2  0
 18 19  1  0
 19 20  2  0
  8 21  1  0
  6  2  1  0
 20 15  1  0
 21  3  1  0
M  END
>  <zinc_id>  (1) 
ZINC000000000056

>  <smiles>  (1) 
CN1[C@H]2CC[C@@H]1CC(OC(=O)[C@H](CO)c1ccccc1)C2

$$$$
