
     RDKit          3D

 24 26  0  0  0  0  0  0  0  0999 V2000
    4.8286   -1.0474   -1.6544 C   0  0  0  0  0  0  0  0  0  0  0  0
    4.3322   -0.1570   -0.7111 N   0  0  0  0  0  4  0  0  0  0  0  0
    5.3585    0.4372    0.1233 C   0  0  0  0  0  0  0  0  0  0  0  0
    3.3926   -0.9834    0.1214 C   0  0  0  0  0  0  0  0  0  0  0  0
    3.2442    0.0839    1.0940 C   0  0  0  0  0  0  0  0  0  0  0  0
    2.7065    1.3525    0.1940 C   0  0  2  0  0  0  0  0  0  0  0  0
    1.3783    0.5348   -0.1842 O   0  0  0  0  0  0  0  0  0  0  0  0
    0.4690    0.6311    0.8652 C   0  0  0  0  0  0  0  0  0  0  0  0
    0.9742    1.3389    1.8845 O   0  0  0  0  0  0  0  0  0  0  0  0
   -0.8633    0.1230    1.0947 C   0  0  0  0  0  0  0  0  0  0  0  0
   -1.0696    0.2053    2.5288 O   0  0  0  0  0  0  0  0  0  0  0  0
   -1.8926    1.1139    0.6007 C   0  0  0  0  0  0  0  0  0  0  0  0
   -3.1774    0.7405    0.4250 C   0  0  0  0  0  0  0  0  0  0  0  0
   -4.2421    1.5320    0.0013 C   0  0  0  0  0  0  0  0  0  0  0  0
   -3.9803    2.8238   -0.2701 C   0  0  0  0  0  0  0  0  0  0  0  0
   -2.6639    3.2598   -0.1161 C   0  0  0  0  0  0  0  0  0  0  0  0
   -1.6085    2.4428    0.3140 C   0  0  0  0  0  0  0  0  0  0  0  0
   -1.3041   -1.2291    0.7125 C   0  0  0  0  0  0  0  0  0  0  0  0
   -0.6787   -2.3412    1.2097 C   0  0  0  0  0  0  0  0  0  0  0  0
   -1.1088   -3.6255    0.9625 C   0  0  0  0  0  0  0  0  0  0  0  0
   -2.2112   -3.8255    0.1857 C   0  0  0  0  0  0  0  0  0  0  0  0
   -2.8465   -2.7385   -0.3183 C   0  0  0  0  0  0  0  0  0  0  0  0
   -2.4445   -1.4275   -0.0742 C   0  0  0  0  0  0  0  0  0  0  0  0
    3.4074    0.7554   -1.2259 C   0  0  0  0  0  0  0  0  0  0  0  0
  1  2  1  0
  2  3  1  0
  2  4  1  0
  4  5  1  0
  5  6  1  0
  6  7  1  6
  7  8  1  0
  8  9  2  0
  8 10  1  0
 10 11  1  0
 10 12  1  0
 12 13  2  0
 13 14  1  0
 14 15  2  0
 15 16  1  0
 16 17  2  0
 10 18  1  0
 18 19  2  0
 19 20  1  0
 20 21  2  0
 21 22  1  0
 22 23  2  0
  6 24  1  0
 24  2  1  0
 17 12  1  0
 23 18  1  0
M  CHG  1   2   1
M  END
>  <zinc_id>  (1) 
ZINC000000000077

>  <smiles>  (1) 
C[N+]1(C)CC[C@H](OC(=O)C(O)(c2ccccc2)c2ccccc2)C1

$$$$
