
     RDKit          3D

 12 13  0  0  0  0  0  0  0  0999 V2000
   -2.3078   -0.4433    0.5994 C   0  0  0  0  0  0  0  0  0  0  0  0
   -1.0515    0.0817    0.0027 C   0  0  0  0  0  0  0  0  0  0  0  0
   -1.2650    1.1101   -1.0713 C   0  0  0  0  0  0  0  0  0  0  0  0
   -0.2242    0.8168    1.1877 C   0  0  1  0  0  0  0  0  0  0  0  0
   -0.1151   -0.5794    2.0449 C   0  0  0  0  0  0  0  0  0  0  0  0
    0.3130   -1.5435    0.9930 C   0  0  0  0  0  0  0  0  0  0  0  0
   -0.0505   -0.9621   -0.3500 C   0  0  1  0  0  0  0  0  0  0  0  0
   -0.4272   -1.9749   -1.3116 C   0  0  0  0  0  0  0  0  0  0  0  0
    0.9421    0.0489   -0.8094 C   0  0  0  0  0  0  0  0  0  0  0  0
    1.2902    0.2462   -1.9180 O   0  0  0  0  0  0  0  0  0  0  0  0
    1.2827    0.6449    0.5350 C   0  0  1  0  0  0  0  0  0  0  0  0
    1.6132    2.5546    0.0978 Br  0  0  0  0  0  0  0  0  0  0  0  0
  1  2  1  0
  2  3  1  0
  2  4  1  0
  4  5  1  1
  5  6  1  0
  6  7  1  0
  7  8  1  6
  7  9  1  0
  9 10  2  0
  9 11  1  0
 11 12  1  6
  7  2  1  0
 11  4  1  0
M  END
>  <zinc_id>  (1) 
ZINC000000000116

>  <smiles>  (1) 
CC1(C)[C@H]2CC[C@]1(C)C(=O)[C@H]2Br

$$$$
