
     RDKit          3D

 20 21  0  0  0  0  0  0  0  0999 V2000
    3.7968   -2.5091    1.1728 O   0  0  0  0  0  0  0  0  0  0  0  0
    3.2498   -1.5205    0.6250 C   0  0  0  0  0  0  0  0  0  0  0  0
    1.8720   -1.1781    1.0144 C   0  0  0  0  0  0  0  0  0  0  0  0
    1.3831    0.3019    0.0334 S   0  0  0  0  0  4  0  0  0  0  0  0
    1.1751   -0.3291   -1.3678 O   0  0  0  0  0  0  0  0  0  0  0  0
   -0.3191    0.5893    0.6263 C   0  0  0  0  0  0  0  0  0  0  0  0
   -0.9193    1.7609   -0.0463 C   0  0  0  0  0  0  0  0  0  0  0  0
   -1.7387    2.5783    0.6947 C   0  0  0  0  0  0  0  0  0  0  0  0
   -2.3197    3.6822    0.1078 C   0  0  0  0  0  0  0  0  0  0  0  0
   -2.0720    3.9558   -1.2210 C   0  0  0  0  0  0  0  0  0  0  0  0
   -1.2521    3.1281   -1.9416 C   0  0  0  0  0  0  0  0  0  0  0  0
   -0.6671    2.0267   -1.3721 C   0  0  0  0  0  0  0  0  0  0  0  0
   -1.1393   -0.6147    0.5421 C   0  0  0  0  0  0  0  0  0  0  0  0
   -0.9755   -1.4853   -0.5182 C   0  0  0  0  0  0  0  0  0  0  0  0
   -1.7374   -2.6392   -0.6307 C   0  0  0  0  0  0  0  0  0  0  0  0
   -2.6761   -2.9050    0.3512 C   0  0  0  0  0  0  0  0  0  0  0  0
   -2.8233   -2.0193    1.4044 C   0  0  0  0  0  0  0  0  0  0  0  0
   -2.0754   -0.8834    1.5180 C   0  0  0  0  0  0  0  0  0  0  0  0
    3.9942   -0.7767   -0.3506 N   0  0  0  0  0  0  0  0  0  0  0  0
    5.2440   -1.1629   -0.6416 O   0  0  0  0  0  0  0  0  0  0  0  0
  1  2  2  0
  2  3  1  0
  4  3  1  1
  4  5  2  0
  4  6  1  0
  6  7  1  0
  7  8  2  0
  8  9  1  0
  9 10  2  0
 10 11  1  0
 11 12  2  0
  6 13  1  0
 13 14  2  0
 14 15  1  0
 15 16  2  0
 16 17  1  0
 17 18  2  0
  2 19  1  0
 19 20  1  0
 12  7  1  0
 18 13  1  0
M  END
>  <zinc_id>  (1) 
ZINC000000000012

>  <smiles>  (1) 
O=C(C[S@@](=O)C(c1ccccc1)c1ccccc1)NO

$$$$
