
     RDKit          3D

 17 17  0  0  0  0  0  0  0  0999 V2000
   -2.7960    3.2188    0.8123 C   0  0  0  0  0  0  0  0  0  0  0  0
   -2.4451    1.7786    1.1234 C   0  0  0  0  0  0  0  0  0  0  0  0
   -3.2643    1.1341    1.8188 O   0  0  0  0  0  0  0  0  0  0  0  0
   -1.2793    1.2192    0.6578 O   0  0  0  0  0  0  0  0  0  0  0  0
   -1.0027   -0.2457    0.9917 C   0  0  2  0  0  0  0  0  0  0  0  0
    0.4705   -0.3373    0.4337 C   0  0  0  0  0  0  0  0  0  0  0  0
    1.3194   -1.1385    1.1449 C   0  0  0  0  0  0  0  0  0  0  0  0
    2.6742   -1.2656    0.7504 C   0  0  0  0  0  0  0  0  0  0  0  0
    3.1192   -0.5739   -0.3532 C   0  0  0  0  0  0  0  0  0  0  0  0
    4.7950   -0.6839   -0.9035 Cl  0  0  0  0  0  0  0  0  0  0  0  0
    2.2592    0.2263   -1.0585 C   0  0  0  0  0  0  0  0  0  0  0  0
    2.8397    1.0855   -2.4405 Cl  0  0  0  0  0  0  0  0  0  0  0  0
    0.9165    0.3247   -0.6310 C   0  0  0  0  0  0  0  0  0  0  0  0
   -1.7151   -0.9438   -0.3225 C   0  0  0  0  0  0  0  0  0  0  0  0
   -3.3955   -0.4885   -0.2810 Cl  0  0  0  0  0  0  0  0  0  0  0  0
   -1.6296   -2.7040    0.0327 Cl  0  0  0  0  0  0  0  0  0  0  0  0
   -0.8661   -0.6058   -1.7754 Cl  0  0  0  0  0  0  0  0  0  0  0  0
  1  2  1  0
  2  3  2  0
  2  4  1  0
  5  4  1  6
  5  6  1  0
  6  7  2  0
  7  8  1  0
  8  9  2  0
  9 10  1  0
  9 11  1  0
 11 12  1  0
 11 13  2  0
  5 14  1  0
 14 15  1  0
 14 16  1  0
 14 17  1  0
 13  6  1  0
M  END
>  <zinc_id>  (1) 
ZINC000000000072

>  <smiles>  (1) 
CC(=O)O[C@H](c1ccc(Cl)c(Cl)c1)C(Cl)(Cl)Cl

$$$$
