
     RDKit          3D

 22 25  0  0  0  0  0  0  0  0999 V2000
    3.1146   -2.7468   -0.9593 C   0  0  0  0  0  0  0  0  0  0  0  0
    2.7919   -1.3161   -0.8321 C   0  0  0  0  0  0  0  0  0  0  0  0
    3.7112   -0.3845   -1.2432 C   0  0  0  0  0  0  0  0  0  0  0  0
    3.4803    0.9488   -1.1553 C   0  0  0  0  0  0  0  0  0  0  0  0
    2.2591    1.3587   -0.6252 C   0  0  0  0  0  0  0  0  0  0  0  0
    1.3096    0.4783   -0.2013 C   0  0  0  0  0  0  0  0  0  0  0  0
    1.5894   -0.8544   -0.3108 C   0  0  0  0  0  0  0  0  0  0  0  0
    0.7900   -1.9431    0.0492 O   0  0  0  0  0  0  0  0  0  0  0  0
   -0.5963   -1.9166    0.2776 C   0  0  0  0  0  0  0  0  0  0  0  0
   -1.1027   -3.0696    0.8324 C   0  0  0  0  0  0  0  0  0  0  0  0
   -2.4426   -3.1510    1.0964 C   0  0  0  0  0  0  0  0  0  0  0  0
   -3.2660   -2.1030    0.8134 C   0  0  0  0  0  0  0  0  0  0  0  0
   -2.7363   -0.9524    0.2556 C   0  0  0  0  0  0  0  0  0  0  0  0
   -1.4023   -0.8127   -0.0310 C   0  0  0  0  0  0  0  0  0  0  0  0
   -1.0736    0.4787   -0.6110 C   0  0  1  0  0  0  0  0  0  0  0  0
   -0.5207    0.4455   -1.8639 O   0  0  0  0  0  0  0  0  0  0  0  0
   -2.2946    1.3747   -0.5214 C   0  0  0  0  0  0  0  0  0  0  0  0
   -2.0409    2.5345    0.4206 C   0  0  0  0  0  0  0  0  0  0  0  0
   -1.0090    3.3305   -0.2016 N   0  0  0  0  0  0  0  0  0  0  0  0
   -0.7401    4.5631    0.4284 C   0  0  0  0  0  0  0  0  0  0  0  0
    0.1404    2.5467   -0.5641 C   0  0  0  0  0  0  0  0  0  0  0  0
    0.0384    1.1907    0.3691 C   0  0  2  0  0  0  0  0  0  0  0  0
  1  2  1  0
  2  3  2  0
  3  4  1  0
  4  5  2  0
  5  6  1  0
  6  7  2  0
  7  8  1  0
  8  9  1  0
  9 10  2  0
 10 11  1  0
 11 12  2  0
 12 13  1  0
 13 14  2  0
 14 15  1  0
 15 16  1  6
 15 17  1  0
 17 18  1  0
 18 19  1  0
 19 20  1  0
 19 21  1  0
 22 21  1  6
  7  2  1  0
 14  9  1  0
 22 15  1  0
 22  6  1  0
M  END
>  <zinc_id>  (1) 
ZINC000000000064

>  <smiles>  (1) 
Cc1cccc2c1Oc1ccccc1[C@@]1(O)CCN(C)C[C@H]21

$$$$
