
     RDKit          3D

 22 22  0  0  0  0  0  0  0  0999 V2000
   -4.6335    3.1653   -1.1541 C   0  0  0  0  0  0  0  0  0  0  0  0
   -4.9279    2.4257    0.1517 C   0  0  0  0  0  0  0  0  0  0  0  0
   -4.4070    1.0061    0.0925 C   0  0  0  0  0  0  0  0  0  0  0  0
   -2.9350    1.0089   -0.1193 C   0  0  0  0  0  0  0  0  0  0  0  0
   -2.3341    2.0887   -0.1920 O   0  0  0  0  0  0  0  0  0  0  0  0
   -2.2158   -0.2514   -0.2391 C   0  0  0  0  0  0  0  0  0  0  0  0
   -2.8860   -1.4433   -0.1692 C   0  0  0  0  0  0  0  0  0  0  0  0
   -2.2446   -2.6539   -0.2825 C   0  0  0  0  0  0  0  0  0  0  0  0
   -2.9614   -3.7980   -0.2042 F   0  0  0  0  0  0  0  0  0  0  0  0
   -0.8705   -2.6664   -0.4740 C   0  0  0  0  0  0  0  0  0  0  0  0
   -0.2040   -1.4515   -0.5417 C   0  0  0  0  0  0  0  0  0  0  0  0
   -0.8530   -0.2412   -0.4283 C   0  0  0  0  0  0  0  0  0  0  0  0
   -0.1300    0.9074   -0.5061 O   0  0  0  0  0  0  0  0  0  0  0  0
    1.2258    1.1014   -0.6878 C   0  0  0  0  0  0  0  0  0  0  0  0
    1.9427    0.3223    0.6347 C   0  0  2  0  0  0  0  0  0  0  0  0
    1.1717    1.2478    1.6240 O   0  0  0  0  0  0  0  0  0  0  0  0
    3.2375    1.4129    0.5966 C   0  0  0  0  0  0  0  0  0  0  0  0
    4.1826    0.7911   -0.3010 N   0  0  0  0  0  0  0  0  0  0  0  0
    4.7720   -0.4085    0.2324 C   0  0  0  0  0  0  0  0  0  0  0  0
    3.7487   -1.5000    0.4876 C   0  0  0  0  0  0  0  0  0  0  0  0
    5.7525   -0.9438   -0.7839 C   0  0  0  0  0  0  0  0  0  0  0  0
    5.5690   -0.1195    1.4967 C   0  0  0  0  0  0  0  0  0  0  0  0
  1  2  1  0
  2  3  1  0
  3  4  1  0
  4  5  2  0
  4  6  1  0
  6  7  2  0
  7  8  1  0
  8  9  1  0
  8 10  2  0
 10 11  1  0
 11 12  2  0
 12 13  1  0
 13 14  1  0
 14 15  1  0
 15 16  1  1
 15 17  1  0
 17 18  1  0
 18 19  1  0
 19 20  1  0
 19 21  1  0
 19 22  1  0
 12  6  1  0
M  END
>  <zinc_id>  (1) 
ZINC000000000112

>  <smiles>  (1) 
CCCC(=O)c1cc(F)ccc1OC[C@H](O)CNC(C)(C)C

$$$$
