
     RDKit          3D

 21 23  0  0  0  0  0  0  0  0999 V2000
   -3.9518   -0.1184   -2.7879 C   0  0  0  0  0  0  0  0  0  0  0  0
   -4.5460   -0.3774   -1.2657 C   0  0  2  0  0  0  0  0  0  0  0  0
   -4.5477    1.1597   -0.8365 C   0  0  0  0  0  0  0  0  0  0  0  0
   -4.6355    2.0694   -1.6069 O   0  0  0  0  0  0  0  0  0  0  0  0
   -4.4361    1.3059    0.5229 O   0  0  0  0  0  0  0  0  0  0  0  0
   -3.1200   -0.7389   -0.6418 C   0  0  0  0  0  0  0  0  0  0  0  0
   -2.9658   -1.8671    0.0682 C   0  0  0  0  0  0  0  0  0  0  0  0
   -1.7263   -2.1592    0.5989 C   0  0  0  0  0  0  0  0  0  0  0  0
   -0.6423   -1.3123    0.4130 C   0  0  0  0  0  0  0  0  0  0  0  0
    0.6212   -1.3172    0.7813 O   0  0  0  0  0  0  0  0  0  0  0  0
    1.2665   -0.2671    0.3485 C   0  0  0  0  0  0  0  0  0  0  0  0
    2.6925    0.0581    0.5691 C   0  0  0  0  0  0  0  0  0  0  0  0
    3.4883   -0.7884    1.2985 C   0  0  0  0  0  0  0  0  0  0  0  0
    4.8206   -0.5015    1.5147 C   0  0  0  0  0  0  0  0  0  0  0  0
    5.3703    0.6675    0.9842 C   0  0  0  0  0  0  0  0  0  0  0  0
    7.0588    1.0799    1.2293 Cl  0  0  0  0  0  0  0  0  0  0  0  0
    4.5727    1.4959    0.2649 C   0  0  0  0  0  0  0  0  0  0  0  0
    3.2484    1.2069    0.0524 C   0  0  0  0  0  0  0  0  0  0  0  0
    0.3619    0.4483   -0.3350 N   0  0  0  0  0  0  0  0  0  0  0  0
   -0.8425   -0.1651   -0.3216 C   0  0  0  0  0  0  0  0  0  0  0  0
   -2.0874    0.1211   -0.8505 C   0  0  0  0  0  0  0  0  0  0  0  0
  2  1  1  6
  2  3  1  0
  3  4  2  0
  3  5  1  0
  2  6  1  0
  6  7  2  0
  7  8  1  0
  8  9  2  0
  9 10  1  0
 10 11  1  0
 11 12  1  0
 12 13  2  0
 13 14  1  0
 14 15  2  0
 15 16  1  0
 15 17  1  0
 17 18  2  0
 11 19  2  0
 19 20  1  0
 20 21  2  0
 21  6  1  0
 20  9  1  0
 18 12  1  0
M  END
>  <zinc_id>  (1) 
ZINC000000000070

>  <smiles>  (1) 
C[C@H](C(=O)O)c1ccc2oc(-c3ccc(Cl)cc3)nc2c1

$$$$
