
     RDKit          3D

 22 23  0  0  0  0  0  0  0  0999 V2000
    2.4065    0.8890    1.2589 C   0  0  0  0  0  0  0  0  0  0  0  0
    2.4030   -0.5812    0.5638 C   0  0  1  0  0  0  0  0  0  0  0  0
    1.3600   -0.2478   -0.5822 C   0  0  0  0  0  0  0  0  0  0  0  0
    0.0934    0.1516   -0.4758 C   0  0  0  0  0  0  0  0  0  0  0  0
   -0.3933    0.3016   -1.8949 C   0  0  0  0  0  0  0  0  0  0  0  0
   -1.7762    0.5086   -2.1708 N   0  0  0  0  0  0  0  0  0  0  0  0
    0.4220    0.2428   -2.8251 O   0  0  0  0  0  0  0  0  0  0  0  0
   -0.6705   -1.0693    0.0579 C   0  0  0  0  0  0  0  0  0  0  0  0
   -0.0852   -1.9723    0.8922 C   0  0  0  0  0  0  0  0  0  0  0  0
   -0.8013   -3.0484    1.3483 C   0  0  0  0  0  0  0  0  0  0  0  0
   -2.1094   -3.2542    0.9897 C   0  0  0  0  0  0  0  0  0  0  0  0
   -2.6740   -2.3091    0.1349 C   0  0  0  0  0  0  0  0  0  0  0  0
   -1.9809   -1.2193   -0.3393 C   0  0  0  0  0  0  0  0  0  0  0  0
   -0.5645    1.2458    0.2209 C   0  0  0  0  0  0  0  0  0  0  0  0
   -0.0768    2.2167    1.0092 C   0  0  0  0  0  0  0  0  0  0  0  0
   -0.8869    3.1664    1.5789 C   0  0  0  0  0  0  0  0  0  0  0  0
   -2.2496    3.1770    1.3735 C   0  0  0  0  0  0  0  0  0  0  0  0
   -2.8012    2.2031    0.5731 C   0  0  0  0  0  0  0  0  0  0  0  0
   -1.9402    1.2780    0.0294 C   0  0  0  0  0  0  0  0  0  0  0  0
    3.6569   -0.2567   -0.3221 N   0  0  0  0  0  0  0  0  0  0  0  0
    3.9300   -1.4220   -1.1163 C   0  0  0  0  0  0  0  0  0  0  0  0
    4.7381   -0.0003    0.5923 C   0  0  0  0  0  0  0  0  0  0  0  0
  2  1  1  1
  2  3  1  0
  3  4  1  0
  4  5  1  0
  5  6  1  0
  5  7  2  0
  4  8  1  0
  8  9  2  0
  9 10  1  0
 10 11  2  0
 11 12  1  0
 12 13  2  0
  4 14  1  0
 14 15  2  0
 15 16  1  0
 16 17  2  0
 17 18  1  0
 18 19  2  0
  2 20  1  0
 20 21  1  0
 20 22  1  0
 13  8  1  0
 19 14  1  0
M  END
>  <zinc_id>  (1) 
ZINC000000000030

>  <smiles>  (1) 
C[C@@H](CC(C(N)=O)(c1ccccc1)c1ccccc1)N(C)C

$$$$
