
     RDKit          3D

 16 16  0  0  0  0  0  0  0  0999 V2000
   -0.6638   -1.9454   -0.3566 C   0  0  0  0  0  0  0  0  0  0  0  0
   -1.8799   -1.4239    0.1587 N   0  0  0  0  0  0  0  0  0  0  0  0
   -3.0473   -2.0604   -0.3945 C   0  0  0  0  0  0  0  0  0  0  0  0
   -1.9954    0.0000    0.1659 C   0  0  1  0  0  0  0  0  0  0  0  0
   -1.9462    0.5876   -1.2400 C   0  0  0  0  0  0  0  0  0  0  0  0
   -3.4156    0.3131    0.6676 C   0  0  0  0  0  0  0  0  0  0  0  0
   -4.3760   -0.2314   -0.1479 O   0  0  0  0  0  0  0  0  0  0  0  0
   -1.0634    0.7192    1.0682 C   0  0  0  0  0  0  0  0  0  0  0  0
    0.3621    0.5386    0.8258 C   0  0  0  0  0  0  0  0  0  0  0  0
    1.0294   -0.4859    1.4638 C   0  0  0  0  0  0  0  0  0  0  0  0
    2.3627   -0.6959    1.2707 C   0  0  0  0  0  0  0  0  0  0  0  0
    3.0515    0.1382    0.4178 C   0  0  0  0  0  0  0  0  0  0  0  0
    4.7585   -0.1627    0.1966 Cl  0  0  0  0  0  0  0  0  0  0  0  0
    2.4096    1.1571   -0.2225 C   0  0  0  0  0  0  0  0  0  0  0  0
    3.3513    2.1835   -1.2967 Cl  0  0  0  0  0  0  0  0  0  0  0  0
    1.0624    1.3683   -0.0267 C   0  0  0  0  0  0  0  0  0  0  0  0
  1  2  1  0
  2  3  1  0
  2  4  1  0
  4  5  1  6
  4  6  1  0
  6  7  1  0
  4  8  1  0
  8  9  1  0
  9 10  2  0
 10 11  1  0
 11 12  2  0
 12 13  1  0
 12 14  1  0
 14 15  1  0
 14 16  2  0
 16  9  1  0
M  END
>  <zinc_id>  (1) 
ZINC000000000130

>  <smiles>  (1) 
CN(C)[C@@](C)(CO)Cc1ccc(Cl)c(Cl)c1

$$$$
