
     RDKit          3D

 21 22  0  0  0  0  0  0  0  0999 V2000
    5.0944   -0.7616   -0.2995 C   0  0  0  0  0  0  0  0  0  0  0  0
    4.1399   -0.2620    0.6588 N   0  0  0  0  0  4  0  0  0  0  0  0
    4.7288    0.6664    1.6060 C   0  0  0  0  0  0  0  0  0  0  0  0
    3.5829   -1.4256    1.3495 C   0  0  0  0  0  0  0  0  0  0  0  0
    3.0241    0.4246    0.0306 C   0  0  0  0  0  0  0  0  0  0  0  0
    1.9346   -0.5430   -0.2892 C   0  0  0  0  0  0  0  0  0  0  0  0
    0.8848    0.1592   -0.8903 O   0  0  0  0  0  0  0  0  0  0  0  0
    0.4710    1.1733    0.1531 C   0  0  2  0  0  0  0  0  0  0  0  0
    0.0664    0.0578    1.2670 C   0  0  0  0  0  0  0  0  0  0  0  0
   -0.9507   -0.8412    0.7984 C   0  0  0  0  0  0  0  0  0  0  0  0
   -0.5306   -1.9616    0.0583 C   0  0  0  0  0  0  0  0  0  0  0  0
   -1.3994   -2.9110   -0.4206 C   0  0  0  0  0  0  0  0  0  0  0  0
   -2.7463   -2.8043   -0.1919 C   0  0  0  0  0  0  0  0  0  0  0  0
   -3.1968   -1.7244    0.5269 C   0  0  0  0  0  0  0  0  0  0  0  0
   -2.3045   -0.7930    0.9918 C   0  0  0  0  0  0  0  0  0  0  0  0
   -0.9238    1.5437   -0.3805 C   0  0  0  0  0  0  0  0  0  0  0  0
   -1.0654    1.5609   -1.7335 C   0  0  0  0  0  0  0  0  0  0  0  0
   -2.3179    1.9556   -2.2478 C   0  0  0  0  0  0  0  0  0  0  0  0
   -3.3495    2.3075   -1.4048 C   0  0  0  0  0  0  0  0  0  0  0  0
   -3.1965    2.2868   -0.0312 C   0  0  0  0  0  0  0  0  0  0  0  0
   -1.9457    1.8918    0.4489 C   0  0  0  0  0  0  0  0  0  0  0  0
  1  2  1  0
  2  3  1  0
  2  4  1  0
  2  5  1  0
  5  6  1  0
  6  7  1  0
  7  8  1  0
  8  9  1  1
  9 10  1  0
 10 11  2  0
 11 12  1  0
 12 13  2  0
 13 14  1  0
 14 15  2  0
  8 16  1  0
 16 17  2  0
 17 18  1  0
 18 19  2  0
 19 20  1  0
 20 21  2  0
 15 10  1  0
 21 16  1  0
M  CHG  1   2   1
M  END
>  <zinc_id>  (1) 
ZINC000000000085

>  <smiles>  (1) 
C[N+](C)(C)CCO[C@H](Cc1ccccc1)c1ccccc1

$$$$
