
     RDKit          3D

 22 24  0  0  0  0  0  0  0  0999 V2000
    5.1371    1.4614   -1.5229 C   0  0  0  0  0  0  0  0  0  0  0  0
    4.0023    1.3434   -0.5934 N   0  0  0  0  0  0  0  0  0  0  0  0
    2.9680    0.7310   -1.5405 C   0  0  1  0  0  0  0  0  0  0  0  0
    3.0145   -0.8211   -1.0812 C   0  0  0  0  0  0  0  0  0  0  0  0
    4.3899   -0.9605   -0.7849 C   0  0  0  0  0  0  0  0  0  0  0  0
    4.5257    0.2309    0.3228 C   0  0  2  0  0  0  0  0  0  0  0  0
    3.1446   -0.0502    1.1550 C   0  0  0  0  0  0  0  0  0  0  0  0
    1.9811    0.5632    0.7444 C   0  0  0  0  0  0  0  0  0  0  0  0
    0.9036   -0.3747    0.9185 O   0  0  0  0  0  0  0  0  0  0  0  0
   -0.3837   -0.0255    0.5855 C   0  0  0  0  0  0  0  0  0  0  0  0
   -0.5502    1.1401    0.1301 O   0  0  0  0  0  0  0  0  0  0  0  0
   -1.5492   -0.9655    0.7464 C   0  0  1  0  0  0  0  0  0  0  0  0
   -1.2328   -2.1556   -0.1368 C   0  0  0  0  0  0  0  0  0  0  0  0
   -1.6566   -1.3768    2.1920 C   0  0  0  0  0  0  0  0  0  0  0  0
   -2.7233   -2.2407    2.3547 O   0  0  0  0  0  0  0  0  0  0  0  0
   -2.7719   -0.2564    0.2914 C   0  0  0  0  0  0  0  0  0  0  0  0
   -2.8294    0.4782   -0.8548 C   0  0  0  0  0  0  0  0  0  0  0  0
   -3.9899    1.1372   -1.2642 C   0  0  0  0  0  0  0  0  0  0  0  0
   -5.1030    1.0213   -0.4573 C   0  0  0  0  0  0  0  0  0  0  0  0
   -5.0928    0.2903    0.7096 C   0  0  0  0  0  0  0  0  0  0  0  0
   -3.9159   -0.3387    1.0616 C   0  0  0  0  0  0  0  0  0  0  0  0
    1.7318    1.1686   -0.5630 C   0  0  0  0  0  0  0  0  0  0  0  0
  1  2  1  0
  2  3  1  0
  3  4  1  1
  4  5  1  0
  6  5  1  6
  6  7  1  0
  7  8  1  0
  8  9  1  0
  9 10  1  0
 10 11  2  0
 10 12  1  0
 12 13  1  6
 12 14  1  0
 14 15  1  0
 12 16  1  0
 16 17  2  0
 17 18  1  0
 18 19  2  0
 19 20  1  0
 20 21  2  0
  8 22  1  0
  6  2  1  0
 21 16  1  0
 22  3  1  0
M  END
>  <zinc_id>  (1) 
ZINC000000000055

>  <smiles>  (1) 
CN1[C@H]2CC[C@@H]1CC(OC(=O)[C@@](C)(CO)c1ccccc1)C2

$$$$
