
     RDKit          3D

 17 18  0  0  0  0  0  0  0  0999 V2000
   -3.5957   -0.8436    1.3719 C   0  0  0  0  0  0  0  0  0  0  0  0
   -3.1988    0.4346    0.4032 C   0  0  2  0  0  0  0  0  0  0  0  0
   -4.2350    0.0340   -0.7702 C   0  0  0  0  0  0  0  0  0  0  0  0
   -4.7951    1.0355   -1.2985 O   0  0  0  0  0  0  0  0  0  0  0  0
   -4.4279   -1.2518   -1.0950 O   0  0  0  0  0  0  0  0  0  0  0  0
   -1.9249   -0.2270   -0.2198 C   0  0  0  0  0  0  0  0  0  0  0  0
   -0.7179    0.2056   -0.0228 N   0  0  0  0  0  0  0  0  0  0  0  0
    0.2890   -0.4112   -0.5849 C   0  0  0  0  0  0  0  0  0  0  0  0
    1.6842    0.0228   -0.4063 C   0  0  0  0  0  0  0  0  0  0  0  0
    2.7368   -0.6371   -1.0050 C   0  0  0  0  0  0  0  0  0  0  0  0
    4.0476   -0.2326   -0.8397 C   0  0  0  0  0  0  0  0  0  0  0  0
    4.3744    0.8579   -0.0634 C   0  0  0  0  0  0  0  0  0  0  0  0
    6.1820    1.4320    0.1768 Br  0  0  0  0  0  0  0  0  0  0  0  0
    3.3279    1.5233    0.5388 C   0  0  0  0  0  0  0  0  0  0  0  0
    2.0196    1.1136    0.3694 C   0  0  0  0  0  0  0  0  0  0  0  0
   -0.0195   -1.5042   -1.3651 C   0  0  0  0  0  0  0  0  0  0  0  0
   -1.7466   -1.5518   -1.2224 S   0  0  0  0  0  0  0  0  0  0  0  0
  2  1  1  1
  2  3  1  0
  3  4  2  0
  3  5  1  0
  2  6  1  0
  6  7  2  0
  7  8  1  0
  8  9  1  0
  9 10  2  0
 10 11  1  0
 11 12  2  0
 12 13  1  0
 12 14  1  0
 14 15  2  0
  8 16  2  0
 16 17  1  0
 17  6  1  0
 15  9  1  0
M  END
>  <zinc_id>  (1) 
ZINC000000000091

>  <smiles>  (1) 
C[C@H](C(=O)O)c1nc(-c2ccc(Br)cc2)cs1

$$$$
