
     RDKit          3D

 20 22  0  0  0  0  0  0  0  0999 V2000
   -2.3433   -3.5962    0.8358 C   0  0  0  0  0  0  0  0  0  0  0  0
   -1.2168   -2.6893    0.4953 C   0  0  0  0  0  0  0  0  0  0  0  0
   -1.6807   -1.2687    0.3106 C   0  0  0  0  0  0  0  0  0  0  0  0
   -2.8926   -0.8001    0.6124 O   0  0  0  0  0  0  0  0  0  0  0  0
   -2.9598    0.4663    0.3126 C   0  0  0  0  0  0  0  0  0  0  0  0
   -3.9973    1.4125    0.4381 C   0  0  0  0  0  0  0  0  0  0  0  0
   -3.7821    2.7126    0.0341 C   0  0  0  0  0  0  0  0  0  0  0  0
   -2.5586    3.0338   -0.4765 C   0  0  0  0  0  0  0  0  0  0  0  0
   -1.5210    2.1400   -0.6108 C   0  0  0  0  0  0  0  0  0  0  0  0
   -1.7507    0.8278   -0.1953 C   0  0  0  0  0  0  0  0  0  0  0  0
   -0.8749   -0.2991   -0.2116 C   0  0  0  0  0  0  0  0  0  0  0  0
    0.4605   -0.1928   -0.7080 C   0  0  0  0  0  0  0  0  0  0  0  0
    0.4847    0.0407   -2.0436 O   0  0  0  0  0  0  0  0  0  0  0  0
    1.7617   -0.2608   -0.1367 C   0  0  0  0  0  0  0  0  0  0  0  0
    2.7454    0.5456   -0.7782 C   0  0  0  0  0  0  0  0  0  0  0  0
    4.0457    0.5348   -0.4126 C   0  0  0  0  0  0  0  0  0  0  0  0
    4.4643   -0.2822    0.6235 C   0  0  0  0  0  0  0  0  0  0  0  0
    5.8273   -0.2068    0.9163 O   0  0  0  0  0  0  0  0  0  0  0  0
    3.5754   -1.0716    1.2703 C   0  0  0  0  0  0  0  0  0  0  0  0
    2.2129   -1.0467    0.8713 C   0  0  0  0  0  0  0  0  0  0  0  0
  1  2  1  0
  2  3  1  0
  3  4  1  0
  4  5  1  0
  5  6  2  0
  6  7  1  0
  7  8  2  0
  8  9  1  0
  9 10  2  0
 10 11  1  0
 11 12  1  0
 12 13  2  0
 12 14  1  0
 14 15  2  0
 15 16  1  0
 16 17  2  0
 17 18  1  0
 17 19  1  0
 19 20  2  0
 11  3  2  0
 20 14  1  0
 10  5  1  0
M  END
>  <zinc_id>  (1) 
ZINC000000000071

>  <smiles>  (1) 
CCc1oc2ccccc2c1C(=O)c1ccc(O)cc1

$$$$
