
     RDKit          3D

 16 17  0  0  0  0  0  0  0  0999 V2000
   -3.1922    0.1227   -1.8012 C   0  0  0  0  0  0  0  0  0  0  0  0
   -3.1496   -0.6475   -0.3519 C   0  0  2  0  0  0  0  0  0  0  0  0
   -3.5526    0.6528    0.5045 C   0  0  0  0  0  0  0  0  0  0  0  0
   -4.3187    0.3992    1.4736 O   0  0  0  0  0  0  0  0  0  0  0  0
   -3.0831    1.8693    0.1685 O   0  0  0  0  0  0  0  0  0  0  0  0
   -1.5785   -0.4855   -0.1405 C   0  0  0  0  0  0  0  0  0  0  0  0
   -1.1185   -0.1685    1.0959 C   0  0  0  0  0  0  0  0  0  0  0  0
    0.2430   -0.0468    1.2738 C   0  0  0  0  0  0  0  0  0  0  0  0
    1.1416   -0.2346    0.2477 C   0  0  0  0  0  0  0  0  0  0  0  0
    2.5899   -0.1016    0.4519 C   0  0  0  0  0  0  0  0  0  0  0  0
    3.4773   -0.8084   -0.2424 C   0  0  0  0  0  0  0  0  0  0  0  0
    4.7732   -0.6376   -0.0060 C   0  0  0  0  0  0  0  0  0  0  0  0
    4.8066    0.5561    1.2361 S   0  0  0  0  0  0  0  0  0  0  0  0
    3.1012    0.7661    1.3769 C   0  0  0  0  0  0  0  0  0  0  0  0
    0.6095   -0.5546   -0.9841 C   0  0  0  0  0  0  0  0  0  0  0  0
   -0.7491   -0.6812   -1.1837 C   0  0  0  0  0  0  0  0  0  0  0  0
  2  1  1  6
  2  3  1  0
  3  4  2  0
  3  5  1  0
  2  6  1  0
  6  7  2  0
  7  8  1  0
  8  9  2  0
  9 10  1  0
 10 11  1  0
 11 12  2  0
 12 13  1  0
 13 14  1  0
  9 15  1  0
 15 16  2  0
 16  6  1  0
 14 10  2  0
M  END
>  <zinc_id>  (1) 
ZINC000000000054

>  <smiles>  (1) 
C[C@H](C(=O)O)c1ccc(-c2ccsc2)cc1

$$$$
