
     RDKit          3D

 18 18  0  0  0  0  0  0  0  0999 V2000
   -3.7660   -0.8634    2.4751 C   0  0  0  0  0  0  0  0  0  0  0  0
   -3.2438   -0.0548    1.3409 C   0  0  0  0  0  0  0  0  0  0  0  0
   -3.8159    1.1531    0.9594 C   0  0  0  0  0  0  0  0  0  0  0  0
   -3.3219    1.8934   -0.0919 C   0  0  0  0  0  0  0  0  0  0  0  0
   -2.2305    1.4750   -0.8231 C   0  0  0  0  0  0  0  0  0  0  0  0
   -1.5986    2.4181   -2.1625 Cl  0  0  0  0  0  0  0  0  0  0  0  0
   -1.6542    0.2691   -0.4468 C   0  0  0  0  0  0  0  0  0  0  0  0
   -0.5563   -0.1181   -1.2092 O   0  0  0  0  0  0  0  0  0  0  0  0
    0.0669   -1.3382   -0.8690 C   0  0  0  0  0  0  0  0  0  0  0  0
    0.4916   -0.9729    0.7046 C   0  0  1  0  0  0  0  0  0  0  0  0
    1.1500   -2.3417    0.9283 O   0  0  0  0  0  0  0  0  0  0  0  0
    1.9364   -0.2264    0.3729 C   0  0  0  0  0  0  0  0  0  0  0  0
    2.5137   -0.8407   -0.7318 N   0  0  0  0  0  0  0  0  0  0  0  0
    3.7431   -0.2058   -1.0358 C   0  0  0  0  0  0  0  0  0  0  0  0
    3.4158    1.2446   -1.4091 C   0  0  0  0  0  0  0  0  0  0  0  0
    4.3484   -0.8655   -2.2501 C   0  0  0  0  0  0  0  0  0  0  0  0
    4.6750   -0.1579    0.1407 C   0  0  0  0  0  0  0  0  0  0  0  0
   -2.1535   -0.4676    0.6056 C   0  0  0  0  0  0  0  0  0  0  0  0
  1  2  1  0
  2  3  2  0
  3  4  1  0
  4  5  2  0
  5  6  1  0
  5  7  1  0
  7  8  1  0
  8  9  1  0
  9 10  1  0
 10 11  1  1
 10 12  1  0
 12 13  1  0
 13 14  1  0
 14 15  1  0
 14 16  1  0
 14 17  1  0
  7 18  2  0
 18  2  1  0
M  END
>  <zinc_id>  (1) 
ZINC000000000106

>  <smiles>  (1) 
Cc1ccc(Cl)c(OC[C@@H](O)CNC(C)(C)C)c1

$$$$
