
     RDKit          3D

 14 14  0  0  0  0  0  0  0  0999 V2000
   -1.9391    3.0889   -0.2147 N   0  0  0  0  0  0  0  0  0  0  0  0
   -0.7034    2.3999   -0.5645 C   0  0  0  0  0  0  0  0  0  0  0  0
   -1.1926    0.8607   -0.9156 C   0  0  2  0  0  0  0  0  0  0  0  0
   -1.8200    0.6112    0.5886 C   0  0  0  0  0  0  0  0  0  0  0  0
   -2.3511   -0.7631    0.5436 C   0  0  0  0  0  0  0  0  0  0  0  0
   -2.8935   -1.2181    1.5725 O   0  0  0  0  0  0  0  0  0  0  0  0
   -2.2701   -1.5523   -0.5810 O   0  0  0  0  0  0  0  0  0  0  0  0
    0.2224    0.1931   -0.6212 C   0  0  0  0  0  0  0  0  0  0  0  0
    1.2959    0.7493   -1.2686 C   0  0  0  0  0  0  0  0  0  0  0  0
    2.5831    0.2273   -1.0763 C   0  0  0  0  0  0  0  0  0  0  0  0
    2.7192   -0.8490   -0.2241 C   0  0  0  0  0  0  0  0  0  0  0  0
    4.3383   -1.5292    0.0370 Cl  0  0  0  0  0  0  0  0  0  0  0  0
    1.6250   -1.3776    0.4046 C   0  0  0  0  0  0  0  0  0  0  0  0
    0.3857   -0.8411    0.1918 C   0  0  0  0  0  0  0  0  0  0  0  0
  1  2  1  0
  3  2  1  1
  3  4  1  0
  4  5  1  0
  5  6  2  0
  5  7  1  0
  3  8  1  0
  8  9  2  0
  9 10  1  0
 10 11  2  0
 11 12  1  0
 11 13  1  0
 13 14  2  0
 14  8  1  0
M  END
>  <zinc_id>  (1) 
ZINC000000000061

>  <smiles>  (1) 
NC[C@H](CC(=O)O)c1ccc(Cl)cc1

$$$$
