
     RDKit          3D

 16 16  0  0  0  0  0  0  0  0999 V2000
    4.5997    2.3640   -0.9094 N   0  0  0  0  0  0  0  0  0  0  0  0
    3.5195    1.4202   -0.9842 C   0  0  0  0  0  0  0  0  0  0  0  0
    2.3921    1.8653   -1.2784 O   0  0  0  0  0  0  0  0  0  0  0  0
    3.7287    0.1193   -0.7456 O   0  0  0  0  0  0  0  0  0  0  0  0
    2.9145   -0.9443   -0.7318 C   0  0  0  0  0  0  0  0  0  0  0  0
    1.8255   -0.9049    0.4783 C   0  0  1  0  0  0  0  0  0  0  0  0
    1.1096    0.3228    0.0463 O   0  0  0  0  0  0  0  0  0  0  0  0
    0.8355   -2.0238   -0.1777 C   0  0  0  0  0  0  0  0  0  0  0  0
   -0.3868   -2.0383    0.2711 O   0  0  0  0  0  0  0  0  0  0  0  0
   -1.4216   -1.1528    0.2594 C   0  0  0  0  0  0  0  0  0  0  0  0
   -2.6413   -1.5330    0.8835 C   0  0  0  0  0  0  0  0  0  0  0  0
   -3.7051   -0.6775    0.8928 C   0  0  0  0  0  0  0  0  0  0  0  0
   -3.6897    0.5645    0.3273 C   0  0  0  0  0  0  0  0  0  0  0  0
   -5.1207    1.5661    0.4071 Cl  0  0  0  0  0  0  0  0  0  0  0  0
   -2.5183    0.9508   -0.2816 C   0  0  0  0  0  0  0  0  0  0  0  0
   -1.4417    0.1016   -0.2985 C   0  0  0  0  0  0  0  0  0  0  0  0
  1  2  1  0
  2  3  2  0
  2  4  1  0
  4  5  1  0
  5  6  1  0
  6  7  1  6
  6  8  1  0
  8  9  1  0
  9 10  1  0
 10 11  2  0
 11 12  1  0
 12 13  2  0
 13 14  1  0
 13 15  1  0
 15 16  2  0
 16 10  1  0
M  END
>  <zinc_id>  (1) 
ZINC000000000136

>  <smiles>  (1) 
NC(=O)OC[C@@H](O)COc1ccc(Cl)cc1

$$$$
