
     RDKit          2D

 19 20  0  0  0  0  0  0  0  0999 V2000
   -5.4095   -2.1006    0.0000 O   0  0  0  0  0  0  0  0  0  0  0  0
   -5.1631   -0.6210    0.0000 C   0  0  0  0  0  0  0  0  0  0  0  0
   -6.3214    0.3322    0.0000 O   0  0  0  0  0  0  0  0  0  0  0  0
   -3.7586   -0.0945    0.0000 C   0  0  0  0  0  0  0  0  0  0  0  0
   -3.5122    1.3851    0.0000 C   0  0  0  0  0  0  0  0  0  0  0  0
   -2.1076    1.9116    0.0000 C   0  0  0  0  0  0  0  0  0  0  0  0
   -0.9494    0.9584    0.0000 C   0  0  0  0  0  0  0  0  0  0  0  0
    0.4552    1.4849    0.0000 N   0  0  0  0  0  0  0  0  0  0  0  0
    1.6134    0.5317    0.0000 C   0  0  0  0  0  0  0  0  0  0  0  0
    1.3670   -0.9479    0.0000 O   0  0  0  0  0  0  0  0  0  0  0  0
    2.5252   -1.9011    0.0000 C   0  0  0  0  0  0  0  0  0  0  0  0
    3.9298   -1.3746    0.0000 C   0  0  0  0  0  0  0  0  0  0  0  0
    5.0880   -2.3278    0.0000 O   0  0  0  0  0  0  0  0  0  0  0  0
    4.1762    0.1050    0.0000 C   0  0  0  0  0  0  0  0  0  0  0  0
    5.5808    0.6315    0.0000 O   0  0  0  0  0  0  0  0  0  0  0  0
    3.0180    1.0582    0.0000 C   0  0  0  0  0  0  0  0  0  0  0  0
    3.2643    2.5378    0.0000 O   0  0  0  0  0  0  0  0  0  0  0  0
   -1.1958   -0.5212    0.0000 C   0  0  0  0  0  0  0  0  0  0  0  0
   -2.6003   -1.0477    0.0000 C   0  0  0  0  0  0  0  0  0  0  0  0
  1  2  2  0
  2  3  1  0
  2  4  1  0
  4  5  2  0
  5  6  1  0
  6  7  2  0
  7  8  1  0
  9  8  1  6
  9 10  1  0
 10 11  1  0
 11 12  1  0
 12 13  1  6
 12 14  1  0
 14 15  1  1
 14 16  1  0
 16 17  1  6
  7 18  1  0
 18 19  2  0
 19  4  1  0
 16  9  1  0
M  END
>  <zinc_id>  (1) 
ZINC000000000066

>  <smiles>  (1) 
O=C(O)c1ccc(N[C@H]2OC[C@@H](O)[C@H](O)[C@H]2O)cc1

$$$$
