
     RDKit          3D

 22 24  0  0  0  0  0  0  0  0999 V2000
   -6.1589    0.9305   -0.4866 C   0  0  0  0  0  0  0  0  0  0  0  0
   -4.8110    0.3878   -0.1589 C   0  0  0  0  0  0  0  0  0  0  0  0
   -4.6783   -0.2369    1.0690 C   0  0  0  0  0  0  0  0  0  0  0  0
   -3.4467   -0.7458    1.3956 C   0  0  0  0  0  0  0  0  0  0  0  0
   -2.3807   -0.6348    0.5240 C   0  0  0  0  0  0  0  0  0  0  0  0
   -2.5198   -0.0178   -0.6843 C   0  0  0  0  0  0  0  0  0  0  0  0
   -3.7614    0.5107   -1.0457 C   0  0  0  0  0  0  0  0  0  0  0  0
   -1.5669    0.2294   -1.7731 C   0  0  0  0  0  0  0  0  0  0  0  0
   -0.1900    0.4352   -1.3625 C   0  0  0  0  0  0  0  0  0  0  0  0
    0.4941    1.1738   -2.1506 O   0  0  0  0  0  0  0  0  0  0  0  0
    0.5492   -0.0415   -0.2268 C   0  0  0  0  0  0  0  0  0  0  0  0
    1.8951    0.3268   -0.2909 C   0  0  0  0  0  0  0  0  0  0  0  0
    2.6895   -0.0594    0.7121 C   0  0  0  0  0  0  0  0  0  0  0  0
    4.2488    0.3470    0.6705 C   0  0  2  0  0  0  0  0  0  0  0  0
    3.9428    1.9400    0.3971 C   0  0  0  0  0  0  0  0  0  0  0  0
    4.4860   -0.0402   -0.8393 C   0  0  0  0  0  0  0  0  0  0  0  0
    4.8842    0.7640   -1.6547 O   0  0  0  0  0  0  0  0  0  0  0  0
    4.2016   -1.3403   -1.1155 O   0  0  0  0  0  0  0  0  0  0  0  0
    2.3016   -0.7867    1.8017 C   0  0  0  0  0  0  0  0  0  0  0  0
    0.9542   -1.1508    1.8579 C   0  0  0  0  0  0  0  0  0  0  0  0
    0.0907   -0.7771    0.8472 C   0  0  0  0  0  0  0  0  0  0  0  0
   -1.2242   -1.2139    1.0426 O   0  0  0  0  0  0  0  0  0  0  0  0
  1  2  1  0
  2  3  2  0
  3  4  1  0
  4  5  2  0
  5  6  1  0
  6  7  2  0
  6  8  1  0
  8  9  1  0
  9 10  2  0
  9 11  1  0
 11 12  2  0
 12 13  1  0
 13 14  1  0
 14 15  1  6
 14 16  1  0
 16 17  2  0
 16 18  1  0
 13 19  2  0
 19 20  1  0
 20 21  2  0
 21 22  1  0
  7  2  1  0
 21 11  1  0
 22  5  1  0
M  END
>  <zinc_id>  (1) 
ZINC000000000080

>  <smiles>  (1) 
Cc1ccc2c(c1)CC(=O)c1cc([C@H](C)C(=O)O)ccc1O2

$$$$
