
     RDKit          3D

 16 17  0  0  0  0  0  0  0  0999 V2000
    3.7813   -1.5540   -0.9981 C   0  0  0  0  0  0  0  0  0  0  0  0
    3.1561   -0.5179   -0.4489 C   0  0  0  0  0  0  0  0  0  0  0  0
    2.3698   -0.8386    0.8036 C   0  0  0  0  0  0  0  0  0  0  0  0
    0.9598   -0.4657    0.4293 C   0  0  0  0  0  0  0  0  0  0  0  0
    0.0328   -1.4610    0.1141 C   0  0  0  0  0  0  0  0  0  0  0  0
   -1.2593   -1.1489   -0.2371 C   0  0  0  0  0  0  0  0  0  0  0  0
   -2.1993   -2.1339   -0.5565 O   0  0  0  0  0  0  0  0  0  0  0  0
   -1.8339   -3.5184   -0.5251 C   0  0  0  0  0  0  0  0  0  0  0  0
   -1.5997    0.1841   -0.2646 C   0  0  0  0  0  0  0  0  0  0  0  0
   -0.6917    1.1723    0.0449 C   0  0  0  0  0  0  0  0  0  0  0  0
    0.6123    0.8584    0.3994 C   0  0  0  0  0  0  0  0  0  0  0  0
    1.5649    1.8154    0.7205 O   0  0  0  0  0  0  0  0  0  0  0  0
    1.7541    2.2768    2.0539 C   0  0  0  0  0  0  0  0  0  0  0  0
   -1.3314    2.3963   -0.0742 O   0  0  0  0  0  0  0  0  0  0  0  0
   -2.4925    2.1489   -0.8802 C   0  0  0  0  0  0  0  0  0  0  0  0
   -2.8234    0.7862   -0.5810 O   0  0  0  0  0  0  0  0  0  0  0  0
  1  2  2  0
  2  3  1  0
  3  4  1  0
  4  5  2  0
  5  6  1  0
  6  7  1  0
  7  8  1  0
  6  9  2  0
  9 10  1  0
 10 11  2  0
 11 12  1  0
 12 13  1  0
 10 14  1  0
 14 15  1  0
 15 16  1  0
 11  4  1  0
 16  9  1  0
M  END
>  <zinc_id>  (1) 
ZINC000000000048

>  <smiles>  (1) 
C=CCc1cc(OC)c2c(c1OC)OCO2

$$$$
