
     RDKit          3D

 22 23  0  0  0  0  0  0  0  0999 V2000
   -1.4498    2.9329   -2.8317 C   0  0  0  0  0  0  0  0  0  0  0  0
   -2.2463    2.1488   -1.9614 O   0  0  0  0  0  0  0  0  0  0  0  0
   -1.7148    0.9974   -1.4003 C   0  0  0  0  0  0  0  0  0  0  0  0
   -0.4356    0.5795   -1.6539 C   0  0  0  0  0  0  0  0  0  0  0  0
    0.1068   -0.5687   -1.0994 C   0  0  0  0  0  0  0  0  0  0  0  0
    1.4951   -1.0156   -1.3781 C   0  0  0  0  0  0  0  0  0  0  0  0
    2.4868   -0.4848   -0.4385 C   0  0  0  0  0  0  0  0  0  0  0  0
    3.3487    0.5496   -0.7691 C   0  0  0  0  0  0  0  0  0  0  0  0
    4.2509    1.0100    0.1329 N   0  0  0  0  0  0  0  0  0  0  0  0
    4.3444    0.4892    1.3656 C   0  0  0  0  0  0  0  0  0  0  0  0
    5.2955    0.9700    2.3254 N   0  0  0  0  0  0  0  0  0  0  0  0
    3.5114   -0.5161    1.6964 N   0  0  0  0  0  0  0  0  0  0  0  0
    2.5959   -1.0068    0.8286 C   0  0  0  0  0  0  0  0  0  0  0  0
    1.7506   -2.0775    1.2666 N   0  0  0  0  0  0  0  0  0  0  0  0
   -0.7293   -1.2894   -0.2562 C   0  0  0  0  0  0  0  0  0  0  0  0
   -2.0214   -0.8811    0.0094 C   0  0  0  0  0  0  0  0  0  0  0  0
   -2.7877   -1.6668    0.8684 O   0  0  0  0  0  0  0  0  0  0  0  0
   -2.2702   -2.8422    1.4527 C   0  0  0  0  0  0  0  0  0  0  0  0
   -2.5322    0.2634   -0.5558 C   0  0  0  0  0  0  0  0  0  0  0  0
   -3.8628    0.6773   -0.2784 N   0  0  0  0  0  0  0  0  0  0  0  0
   -4.9060    0.1757   -1.1631 C   0  0  0  0  0  0  0  0  0  0  0  0
   -4.2300    1.5550    0.8166 C   0  0  0  0  0  0  0  0  0  0  0  0
  1  2  1  0
  2  3  1  0
  3  4  2  0
  4  5  1  0
  5  6  1  0
  6  7  1  0
  7  8  2  0
  8  9  1  0
  9 10  2  0
 10 11  1  0
 10 12  1  0
 12 13  2  0
 13 14  1  0
  5 15  2  0
 15 16  1  0
 16 17  1  0
 17 18  1  0
 16 19  2  0
 19 20  1  0
 20 21  1  0
 20 22  1  0
 19  3  1  0
 13  7  1  0
M  END
>  <zinc_id>  (1) 
ZINC000000000011

>  <smiles>  (1) 
COc1cc(Cc2cnc(N)nc2N)cc(OC)c1N(C)C

$$$$
