
     RDKit          3D

 18 19  0  0  0  0  0  0  0  0999 V2000
   -2.7384    2.7674   -0.3487 C   0  0  0  0  0  0  0  0  0  0  0  0
   -1.4924    1.8769    0.2642 C   0  0  2  0  0  0  0  0  0  0  0  0
   -0.8446    1.6474   -1.1601 N   0  0  0  0  0  0  0  0  0  0  0  0
    0.2382    0.8463   -0.9911 N   0  0  0  0  0  0  0  0  0  0  0  0
    1.3027    0.9376   -0.0976 C   0  0  0  0  0  0  0  0  0  0  0  0
    1.2701    1.9310    0.6957 O   0  0  0  0  0  0  0  0  0  0  0  0
    2.4020   -0.0419   -0.0591 C   0  0  0  0  0  0  0  0  0  0  0  0
    2.3300   -1.0856   -0.9454 C   0  0  0  0  0  0  0  0  0  0  0  0
    3.2826   -2.0728   -1.0197 C   0  0  0  0  0  0  0  0  0  0  0  0
    4.3488   -1.9786   -0.1460 C   0  0  0  0  0  0  0  0  0  0  0  0
    4.4244   -0.9399    0.7392 C   0  0  0  0  0  0  0  0  0  0  0  0
    3.4517    0.0323    0.7863 C   0  0  0  0  0  0  0  0  0  0  0  0
   -2.3298    0.5054    0.2836 C   0  0  0  0  0  0  0  0  0  0  0  0
   -3.0111    0.1046   -0.7784 C   0  0  0  0  0  0  0  0  0  0  0  0
   -3.7098   -1.0907   -0.7078 C   0  0  0  0  0  0  0  0  0  0  0  0
   -3.6822   -1.8368    0.4645 C   0  0  0  0  0  0  0  0  0  0  0  0
   -2.9636   -1.3978    1.5605 C   0  0  0  0  0  0  0  0  0  0  0  0
   -2.2785   -0.2048    1.4602 C   0  0  0  0  0  0  0  0  0  0  0  0
  2  1  1  6
  2  3  1  0
  3  4  1  0
  4  5  1  0
  5  6  2  0
  5  7  1  0
  7  8  2  0
  8  9  1  0
  9 10  2  0
 10 11  1  0
 11 12  2  0
  2 13  1  0
 13 14  2  0
 14 15  1  0
 15 16  2  0
 16 17  1  0
 17 18  2  0
 12  7  1  0
 18 13  1  0
M  END
>  <zinc_id>  (1) 
ZINC000000000068

>  <smiles>  (1) 
C[C@H](NNC(=O)c1ccccc1)c1ccccc1

$$$$
