
     RDKit          3D

 22 23  0  0  0  0  0  0  0  0999 V2000
    0.5945    3.0870   -0.3641 C   0  0  0  0  0  0  0  0  0  0  0  0
   -0.1001    1.8617    0.0982 C   0  0  0  0  0  0  0  0  0  0  0  0
    0.4885    0.8385    0.7772 C   0  0  0  0  0  0  0  0  0  0  0  0
    1.8444    0.6968    1.1815 N   0  0  0  0  0  0  0  0  0  0  0  0
    2.6837    0.0217    0.2253 C   0  0  0  0  0  0  0  0  0  0  0  0
    2.2748   -0.3914   -0.8351 O   0  0  0  0  0  0  0  0  0  0  0  0
    4.2105   -0.1400    0.6804 C   0  0  2  0  0  0  0  0  0  0  0  0
    4.6858    1.3435    0.1212 C   0  0  0  0  0  0  0  0  0  0  0  0
    4.6900   -0.9035   -0.6139 N   0  0  0  0  0  0  0  0  0  0  0  0
    3.8758   -2.1284   -0.5416 C   0  0  0  0  0  0  0  0  0  0  0  0
    6.0549   -1.2835   -0.3053 C   0  0  0  0  0  0  0  0  0  0  0  0
   -0.5267   -0.0678    0.9944 C   0  0  0  0  0  0  0  0  0  0  0  0
   -0.3905   -1.1598    1.5960 O   0  0  0  0  0  0  0  0  0  0  0  0
   -1.6919    0.4019    0.4583 N   0  0  0  0  0  0  0  0  0  0  0  0
   -2.9239   -0.3121    0.5173 C   0  0  0  0  0  0  0  0  0  0  0  0
   -3.6407   -0.4115    1.6921 C   0  0  0  0  0  0  0  0  0  0  0  0
   -4.8329   -1.1013    1.7712 C   0  0  0  0  0  0  0  0  0  0  0  0
   -5.3713   -1.7302    0.6731 C   0  0  0  0  0  0  0  0  0  0  0  0
   -4.6699   -1.6399   -0.5037 C   0  0  0  0  0  0  0  0  0  0  0  0
   -3.4622   -0.9414   -0.5844 C   0  0  0  0  0  0  0  0  0  0  0  0
   -1.4071    1.5542   -0.0694 N   0  0  0  0  0  0  0  0  0  0  0  0
   -2.3857    2.4056   -0.7575 C   0  0  0  0  0  0  0  0  0  0  0  0
  1  2  1  0
  2  3  2  0
  3  4  1  0
  4  5  1  0
  5  6  2  0
  5  7  1  0
  7  8  1  6
  7  9  1  0
  9 10  1  0
  9 11  1  0
  3 12  1  0
 12 13  2  0
 12 14  1  0
 14 15  1  0
 15 16  2  0
 16 17  1  0
 17 18  2  0
 18 19  1  0
 19 20  2  0
 14 21  1  0
 21 22  1  0
 21  2  1  0
 20 15  1  0
M  END
>  <zinc_id>  (1) 
ZINC000000000031

>  <smiles>  (1) 
Cc1c(NC(=O)[C@H](C)N(C)C)c(=O)n(-c2ccccc2)n1C

$$$$
