
     RDKit          3D

 19 22  0  0  0  0  0  0  0  0999 V2000
   -1.2712    2.8764   -0.3166 N   0  0  0  0  0  0  0  0  0  0  0  0
   -0.0403    2.2866   -0.0517 C   0  0  0  0  0  0  0  0  0  0  0  0
    0.9691    2.9522    0.1080 O   0  0  0  0  0  0  0  0  0  0  0  0
   -0.0353    0.8997    0.0187 N   0  0  0  0  0  0  0  0  0  0  0  0
   -1.2690    0.2071   -0.1817 C   0  0  0  0  0  0  0  0  0  0  0  0
   -2.2795    1.0893    0.0937 C   0  0  0  0  0  0  0  0  0  0  0  0
   -3.5737    0.6252   -0.0302 C   0  0  0  0  0  0  0  0  0  0  0  0
   -3.8016   -0.6721   -0.4154 C   0  0  0  0  0  0  0  0  0  0  0  0
   -2.7794   -1.5096   -0.6777 C   0  0  0  0  0  0  0  0  0  0  0  0
   -1.4069   -1.1002   -0.5715 C   0  0  0  0  0  0  0  0  0  0  0  0
   -0.5486   -2.0440   -0.8836 C   0  0  0  0  0  0  0  0  0  0  0  0
    0.3707   -2.8728    0.0549 O   0  0  0  0  0  0  0  0  0  0  0  0
    0.9835   -1.9414   -1.1449 C   0  0  2  0  0  0  0  0  0  0  0  0
    1.6316   -0.8918   -0.1851 C   0  0  0  0  0  0  0  0  0  0  0  0
    2.9053   -1.3632    0.1846 C   0  0  0  0  0  0  0  0  0  0  0  0
    3.6775   -0.5829    1.0263 C   0  0  0  0  0  0  0  0  0  0  0  0
    3.2273    0.6325    1.5032 C   0  0  0  0  0  0  0  0  0  0  0  0
    1.9850    1.1071    1.1516 C   0  0  0  0  0  0  0  0  0  0  0  0
    1.2556    0.3020    0.3174 C   0  0  0  0  0  0  0  0  0  0  0  0
  1  2  1  0
  2  3  2  0
  2  4  1  0
  4  5  1  0
  5  6  2  0
  6  7  1  0
  7  8  2  0
  8  9  1  0
  9 10  2  0
 10 11  1  0
 11 12  1  0
 13 12  1  1
 13 14  1  0
 14 15  2  0
 15 16  1  0
 16 17  2  0
 17 18  1  0
 18 19  2  0
 19  4  1  0
 10  5  1  0
 13 11  1  0
 19 14  1  0
M  END
>  <zinc_id>  (1) 
ZINC000000000118

>  <smiles>  (1) 
NC(=O)N1c2ccccc2C2O[C@@H]2c2ccccc21

$$$$
