
     RDKit          3D

 23 25  0  0  0  0  0  0  0  0999 V2000
    1.7019    1.3625    2.5621 C   0  0  0  0  0  0  0  0  0  0  0  0
    1.3981    1.2147    1.1563 N   0  0  0  0  0  0  0  0  0  0  0  0
    0.9111    2.4121    0.5241 C   0  0  0  0  0  0  0  0  0  0  0  0
    0.6425    3.4079    1.1866 O   0  0  0  0  0  0  0  0  0  0  0  0
    0.7408    2.4064   -0.9772 C   0  0  0  0  0  0  0  0  0  0  0  0
   -0.1648    1.3704   -1.2557 N   0  0  0  0  0  0  0  0  0  0  0  0
   -1.4825    1.8012   -1.4598 C   0  0  0  0  0  0  0  0  0  0  0  0
   -2.5529    0.9441   -1.7683 N   0  0  0  0  0  0  0  0  0  0  0  0
   -1.7200    3.0455   -1.3600 O   0  0  0  0  0  0  0  0  0  0  0  0
   -0.1046   -0.1503   -1.4186 C   0  0  2  0  0  0  0  0  0  0  0  0
   -1.3388   -0.5412   -0.4232 C   0  0  0  0  0  0  0  0  0  0  0  0
   -2.1274   -1.5843   -0.8637 C   0  0  0  0  0  0  0  0  0  0  0  0
   -3.1798   -1.9207   -0.0161 C   0  0  0  0  0  0  0  0  0  0  0  0
   -3.3884   -1.2372    1.1718 C   0  0  0  0  0  0  0  0  0  0  0  0
   -2.5322   -0.1887    1.5356 C   0  0  0  0  0  0  0  0  0  0  0  0
   -1.4846    0.1516    0.6994 C   0  0  0  0  0  0  0  0  0  0  0  0
    1.0513   -0.6249   -0.4054 C   0  0  0  0  0  0  0  0  0  0  0  0
    1.3718   -1.9290   -0.8566 C   0  0  0  0  0  0  0  0  0  0  0  0
    2.3176   -2.6532   -0.1909 C   0  0  0  0  0  0  0  0  0  0  0  0
    2.7589   -4.2944   -0.7142 Cl  0  0  0  0  0  0  0  0  0  0  0  0
    2.9381   -2.0987    0.9043 C   0  0  0  0  0  0  0  0  0  0  0  0
    2.6041   -0.8133    1.3265 C   0  0  0  0  0  0  0  0  0  0  0  0
    1.6397   -0.0806    0.6431 C   0  0  0  0  0  0  0  0  0  0  0  0
  1  2  1  0
  2  3  1  0
  3  4  2  0
  3  5  1  0
  5  6  1  0
  6  7  1  0
  7  8  1  0
  7  9  2  0
  6 10  1  0
 10 11  1  1
 11 12  2  0
 12 13  1  0
 13 14  2  0
 14 15  1  0
 15 16  2  0
 10 17  1  0
 17 18  2  0
 18 19  1  0
 19 20  1  0
 19 21  2  0
 21 22  1  0
 22 23  2  0
 23  2  1  0
 16 11  1  0
 23 17  1  0
M  END
>  <zinc_id>  (1) 
ZINC000000000123

>  <smiles>  (1) 
CN1C(=O)CN(C(N)=O)[C@H](c2ccccc2)c2cc(Cl)ccc21

$$$$
