
     RDKit          3D

 18 19  0  0  0  0  0  0  0  0999 V2000
    0.6372   -2.6134   -0.2317 O   0  0  0  0  0  0  0  0  0  0  0  0
    0.2632   -1.5296   -0.6924 C   0  0  0  0  0  0  0  0  0  0  0  0
   -0.7195   -0.8761   -0.1180 O   0  0  0  0  0  0  0  0  0  0  0  0
   -1.5069   -1.1583    0.9975 C   0  0  0  0  0  0  0  0  0  0  0  0
   -2.4436   -0.0014    1.1105 C   0  0  0  0  0  0  0  0  0  0  0  0
   -2.1587    1.1248    1.8380 C   0  0  0  0  0  0  0  0  0  0  0  0
   -3.0487    2.2002    1.9331 C   0  0  0  0  0  0  0  0  0  0  0  0
   -4.2294    2.0643    1.2537 C   0  0  0  0  0  0  0  0  0  0  0  0
   -4.5625    0.9468    0.5058 C   0  0  0  0  0  0  0  0  0  0  0  0
   -3.6382   -0.0778    0.4546 C   0  0  0  0  0  0  0  0  0  0  0  0
    1.0590   -1.0698   -1.9618 C   0  0  1  0  0  0  0  0  0  0  0  0
    0.3359    0.2349   -2.2089 O   0  0  0  0  0  0  0  0  0  0  0  0
    2.2889   -0.4001   -1.1668 C   0  0  0  0  0  0  0  0  0  0  0  0
    3.5313   -0.8367   -1.5246 C   0  0  0  0  0  0  0  0  0  0  0  0
    4.6135   -0.2759   -0.8519 C   0  0  0  0  0  0  0  0  0  0  0  0
    4.4060    0.6757    0.1268 C   0  0  0  0  0  0  0  0  0  0  0  0
    3.1232    1.0753    0.4427 C   0  0  0  0  0  0  0  0  0  0  0  0
    2.0493    0.5170   -0.2266 C   0  0  0  0  0  0  0  0  0  0  0  0
  1  2  2  0
  2  3  1  0
  3  4  1  0
  4  5  1  0
  5  6  2  0
  6  7  1  0
  7  8  2  0
  8  9  1  0
  9 10  2  0
  2 11  1  0
 11 12  1  1
 11 13  1  0
 13 14  2  0
 14 15  1  0
 15 16  2  0
 16 17  1  0
 17 18  2  0
 10  5  1  0
 18 13  1  0
M  END
>  <zinc_id>  (1) 
ZINC000000000078

>  <smiles>  (1) 
O=C(OCc1ccccc1)[C@@H](O)c1ccccc1

$$$$
