
     RDKit          3D

 13 13  0  0  0  0  0  0  0  0999 V2000
   -3.8236    1.9830   -0.8418 C   0  0  0  0  0  0  0  0  0  0  0  0
   -2.8020    0.9792   -0.4498 C   0  0  0  0  0  0  0  0  0  0  0  0
   -3.0859   -0.3443   -0.2033 C   0  0  0  0  0  0  0  0  0  0  0  0
   -2.0872   -1.2148    0.1553 C   0  0  0  0  0  0  0  0  0  0  0  0
   -0.7541   -0.7974    0.2837 C   0  0  0  0  0  0  0  0  0  0  0  0
    0.5124   -1.9129    0.7688 S   0  0  0  0  0  0  0  0  0  0  0  0
    2.1589   -1.2649    0.7988 C   0  0  0  0  0  0  0  0  0  0  0  0
    2.6512   -1.0029   -0.6625 C   0  0  2  0  0  0  0  0  0  0  0  0
    4.4244   -0.4095   -0.1782 S   0  0  0  0  0  0  0  0  0  0  0  0
    2.0802    0.4519   -0.8457 C   0  0  0  0  0  0  0  0  0  0  0  0
    2.7498    1.5905    0.3479 S   0  0  0  0  0  0  0  0  0  0  0  0
   -0.5250    0.5282    0.0276 C   0  0  0  0  0  0  0  0  0  0  0  0
   -1.4991    1.4139   -0.3303 C   0  0  0  0  0  0  0  0  0  0  0  0
  1  2  1  0
  2  3  2  0
  3  4  1  0
  4  5  2  0
  5  6  1  0
  6  7  1  0
  8  7  1  1
  8  9  1  0
  8 10  1  0
 10 11  1  0
  5 12  1  0
 12 13  2  0
 13  2  1  0
M  END
>  <zinc_id>  (1) 
ZINC000000000045

>  <smiles>  (1) 
Cc1ccc(SC[C@H](S)CS)cc1

$$$$
