
     RDKit          3D

 14 14  0  0  0  0  0  0  0  0999 V2000
   -1.6136    1.8853    0.5498 C   0  0  0  0  0  0  0  0  0  0  0  0
   -2.4551    0.9224   -0.2297 C   0  0  0  0  0  0  0  0  0  0  0  0
   -2.9518    1.4684   -1.5497 C   0  0  0  0  0  0  0  0  0  0  0  0
   -3.5945    0.3695    0.6039 C   0  0  0  0  0  0  0  0  0  0  0  0
   -1.5421   -0.1784   -0.5894 N   0  0  0  0  0  0  0  0  0  0  0  0
   -1.1208   -0.7670    0.6696 C   0  0  0  0  0  0  0  0  0  0  0  0
   -0.1188   -1.9770    0.1375 C   0  0  2  0  0  0  0  0  0  0  0  0
    0.1703   -2.4270    1.5920 O   0  0  0  0  0  0  0  0  0  0  0  0
    1.1732   -1.0328    0.0503 C   0  0  0  0  0  0  0  0  0  0  0  0
    1.1456    0.2098   -0.5056 C   0  0  0  0  0  0  0  0  0  0  0  0
    2.4378    0.7060   -0.3989 C   0  0  0  0  0  0  0  0  0  0  0  0
    3.0374    2.4083   -0.9987 Br  0  0  0  0  0  0  0  0  0  0  0  0
    3.0984   -0.2894    0.2079 N   0  0  0  0  0  0  0  0  0  0  0  0
    2.3339   -1.2983    0.4611 O   0  0  0  0  0  0  0  0  0  0  0  0
  1  2  1  0
  2  3  1  0
  2  4  1  0
  2  5  1  0
  5  6  1  0
  6  7  1  0
  7  8  1  1
  7  9  1  0
  9 10  2  0
 10 11  1  0
 11 12  1  0
 11 13  2  0
 13 14  1  0
 14  9  1  0
M  END
>  <zinc_id>  (1) 
ZINC000000000098

>  <smiles>  (1) 
CC(C)(C)NC[C@H](O)c1cc(Br)no1

$$$$
