
     RDKit          3D

 11 10  0  0  0  0  0  0  0  0999 V2000
    0.2233   -1.1429    0.9896 C   0  0  0  0  0  0  0  0  0  0  0  0
    0.2085   -0.1895   -0.3871 C   0  0  1  0  0  0  0  0  0  0  0  0
   -0.8302    0.8753    0.5209 C   0  0  0  0  0  0  0  0  0  0  0  0
   -2.1630    0.3278    0.1859 N   0  0  0  0  0  4  0  0  0  0  0  0
   -2.0848   -0.8120   -0.7219 C   0  0  0  0  0  0  0  0  0  0  0  0
   -2.7362    1.4194   -0.6331 C   0  0  0  0  0  0  0  0  0  0  0  0
   -2.9960    0.0741    1.2901 C   0  0  0  0  0  0  0  0  0  0  0  0
    1.4189    0.5763    0.1205 O   0  0  0  0  0  0  0  0  0  0  0  0
    2.5465   -0.1775   -0.0569 C   0  0  0  0  0  0  0  0  0  0  0  0
    3.8511    0.3814    0.2355 N   0  0  0  0  0  0  0  0  0  0  0  0
    2.5618   -1.3324   -0.4457 O   0  0  0  0  0  0  0  0  0  0  0  0
  2  1  1  1
  2  3  1  0
  3  4  1  0
  4  5  1  0
  4  6  1  0
  4  7  1  0
  2  8  1  0
  8  9  1  0
  9 10  1  0
  9 11  2  0
M  CHG  1   4   1
M  END
>  <zinc_id>  (1) 
ZINC000000000083

>  <smiles>  (1) 
C[C@@H](C[N+](C)(C)C)OC(N)=O

$$$$
