
     RDKit          3D

 15 16  0  0  0  0  0  0  0  0999 V2000
   -4.3653   -0.0131   -0.5578 N   0  0  0  0  0  0  0  0  0  0  0  0
   -2.9719   -0.2046   -0.2327 C   0  0  0  0  0  0  0  0  0  0  0  0
   -2.6010   -1.3557    0.4222 C   0  0  0  0  0  0  0  0  0  0  0  0
   -1.2812   -1.6081    0.7675 C   0  0  0  0  0  0  0  0  0  0  0  0
   -0.3257   -0.6776    0.4425 C   0  0  0  0  0  0  0  0  0  0  0  0
   -0.6903    0.4696   -0.2106 C   0  0  0  0  0  0  0  0  0  0  0  0
   -2.0131    0.7216   -0.5555 C   0  0  0  0  0  0  0  0  0  0  0  0
    0.3760    1.4007   -0.5557 C   0  0  0  0  0  0  0  0  0  0  0  0
    0.0436    2.4563   -1.1528 O   0  0  0  0  0  0  0  0  0  0  0  0
    1.6864    1.0479   -0.1961 N   0  0  0  0  0  0  0  0  0  0  0  0
    1.6736    0.4473    1.2800 C   0  0  2  0  0  0  0  0  0  0  0  0
    3.2339   -0.1349    1.1871 C   0  0  0  0  0  0  0  0  0  0  0  0
    3.3010   -1.0859    0.0799 C   0  0  0  0  0  0  0  0  0  0  0  0
    2.9233   -0.5454   -1.5077 Cl  0  0  0  0  0  0  0  0  0  0  0  0
    1.0108   -0.9181    0.7895 O   0  0  0  0  0  0  0  0  0  0  0  0
  1  2  1  0
  2  3  2  0
  3  4  1  0
  4  5  2  0
  5  6  1  0
  6  7  2  0
  6  8  1  0
  8  9  2  0
  8 10  1  0
 10 11  1  0
 11 12  1  6
 12 13  1  0
 13 14  1  0
 11 15  1  0
  7  2  1  0
 15  5  1  0
M  END
>  <zinc_id>  (1) 
ZINC000000000028

>  <smiles>  (1) 
Nc1ccc2c(c1)C(=O)N[C@H](CCCl)O2

$$$$
