
     RDKit          3D

 14 14  0  0  0  0  0  0  0  0999 V2000
   -3.3716    2.1885    0.0038 C   0  0  0  0  0  0  0  0  0  0  0  0
   -2.4581    1.5592   -0.7177 C   0  0  0  0  0  0  0  0  0  0  0  0
   -2.4458    0.0748   -0.6990 C   0  0  0  0  0  0  0  0  0  0  0  0
   -1.1256   -0.3420   -0.1822 N   0  0  0  0  0  0  0  0  0  0  0  0
    0.0407   -0.5904   -0.9445 C   0  0  0  0  0  0  0  0  0  0  0  0
    0.4208   -0.1100   -2.0020 O   0  0  0  0  0  0  0  0  0  0  0  0
    0.8143   -1.7000   -0.0953 C   0  0  1  0  0  0  0  0  0  0  0  0
    2.3212   -1.1429   -0.3923 C   0  0  0  0  0  0  0  0  0  0  0  0
    2.5850    0.1648    0.0522 C   0  0  0  0  0  0  0  0  0  0  0  0
    3.8865    0.7986   -0.1461 C   0  0  0  0  0  0  0  0  0  0  0  0
    1.3946    1.0070    0.2582 C   0  0  0  0  0  0  0  0  0  0  0  0
    0.5713   -0.9494    1.2856 N   0  0  0  0  0  0  0  0  0  0  0  0
   -0.8009   -0.5601    1.1584 C   0  0  0  0  0  0  0  0  0  0  0  0
   -1.8323   -0.3981    2.4209 S   0  0  0  0  0  0  0  0  0  0  0  0
  1  2  2  0
  2  3  1  0
  3  4  1  0
  4  5  1  0
  5  6  2  0
  5  7  1  0
  7  8  1  6
  8  9  1  0
  9 10  1  0
  9 11  1  0
  7 12  1  0
 12 13  1  0
 13 14  2  0
 13  4  1  0
M  END
>  <zinc_id>  (1) 
ZINC000000000018

>  <smiles>  (1) 
C=CCN1C(=O)[C@@H](CC(C)C)NC1=S

$$$$
