
     RDKit          3D

 18 18  0  0  0  0  0  0  0  0999 V2000
   -2.5443    2.0486   -0.6722 C   0  0  0  0  0  0  0  0  0  0  0  0
   -2.1252    1.3440   -1.7083 C   0  0  0  0  0  0  0  0  0  0  0  0
   -1.9340   -0.1442   -1.6288 C   0  0  0  0  0  0  0  0  0  0  0  0
   -2.2897   -0.6005   -0.2407 C   0  0  0  0  0  0  0  0  0  0  0  0
   -3.4902   -1.2378   -0.0003 C   0  0  0  0  0  0  0  0  0  0  0  0
   -3.7687   -1.6337    1.2849 C   0  0  0  0  0  0  0  0  0  0  0  0
   -2.8691   -1.3966    2.2981 C   0  0  0  0  0  0  0  0  0  0  0  0
   -1.6847   -0.7635    2.0366 C   0  0  0  0  0  0  0  0  0  0  0  0
   -1.3865   -0.3557    0.7425 C   0  0  0  0  0  0  0  0  0  0  0  0
   -0.1918    0.2883    0.4558 O   0  0  0  0  0  0  0  0  0  0  0  0
    0.7008    0.5167    1.5054 C   0  0  0  0  0  0  0  0  0  0  0  0
    1.9934    1.2982    0.8220 C   0  0  2  0  0  0  0  0  0  0  0  0
    1.1293    2.4449    0.2901 O   0  0  0  0  0  0  0  0  0  0  0  0
    1.9234    0.4389   -0.5970 C   0  0  0  0  0  0  0  0  0  0  0  0
    2.7517   -0.7059   -0.1822 N   0  0  0  0  0  0  0  0  0  0  0  0
    4.1145   -0.3495    0.0052 C   0  0  0  0  0  0  0  0  0  0  0  0
    4.8108    0.1229   -1.2282 C   0  0  0  0  0  0  0  0  0  0  0  0
    4.8604   -1.3152    0.8488 C   0  0  0  0  0  0  0  0  0  0  0  0
  1  2  2  0
  2  3  1  0
  3  4  1  0
  4  5  2  0
  5  6  1  0
  6  7  2  0
  7  8  1  0
  8  9  2  0
  9 10  1  0
 10 11  1  0
 11 12  1  0
 12 13  1  6
 12 14  1  0
 14 15  1  0
 15 16  1  0
 16 17  1  0
 16 18  1  0
  9  4  1  0
M  END
>  <zinc_id>  (1) 
ZINC000000000023

>  <smiles>  (1) 
C=CCc1ccccc1OC[C@H](O)CNC(C)C

$$$$
