
     RDKit          3D

 22 24  0  0  0  0  0  0  0  0999 V2000
    4.2225    2.5575   -1.3006 O   0  0  0  0  0  0  0  0  0  0  0  0
    4.9965    1.7753   -0.5144 C   0  0  0  0  0  0  0  0  0  0  0  0
    4.3118    1.7290    0.9986 C   0  0  1  0  0  0  0  0  0  0  0  0
    4.3943    3.2491    1.2023 O   0  0  0  0  0  0  0  0  0  0  0  0
    2.7465    1.7829    0.4356 C   0  0  0  0  0  0  0  0  0  0  0  0
    2.4999    0.4273    0.1912 O   0  0  0  0  0  0  0  0  0  0  0  0
    1.2950   -0.0412   -0.3004 C   0  0  0  0  0  0  0  0  0  0  0  0
    0.2398    0.7305   -0.5961 N   0  0  0  0  0  0  0  0  0  0  0  0
   -0.7575    0.0035   -1.0417 N   0  0  0  0  0  0  0  0  0  0  0  0
   -2.0626    0.4472   -1.4657 C   0  0  0  0  0  0  0  0  0  0  0  0
   -3.0233    0.4654   -0.3279 C   0  0  0  0  0  0  0  0  0  0  0  0
   -3.7555   -0.6832   -0.0780 C   0  0  0  0  0  0  0  0  0  0  0  0
   -4.6654   -0.7410    0.9598 C   0  0  0  0  0  0  0  0  0  0  0  0
   -4.8815    0.3402    1.7876 C   0  0  0  0  0  0  0  0  0  0  0  0
   -4.1372    1.4946    1.5265 C   0  0  0  0  0  0  0  0  0  0  0  0
   -3.2314    1.5372    0.4855 C   0  0  0  0  0  0  0  0  0  0  0  0
   -0.3673   -1.2832   -1.0467 C   0  0  0  0  0  0  0  0  0  0  0  0
   -0.9803   -2.4834   -1.4067 C   0  0  0  0  0  0  0  0  0  0  0  0
   -0.3341   -3.6957   -1.3101 C   0  0  0  0  0  0  0  0  0  0  0  0
    0.9618   -3.7282   -0.8426 C   0  0  0  0  0  0  0  0  0  0  0  0
    1.6032   -2.5461   -0.4743 C   0  0  0  0  0  0  0  0  0  0  0  0
    0.9248   -1.3379   -0.5831 C   0  0  0  0  0  0  0  0  0  0  0  0
  1  2  1  0
  2  3  1  0
  3  4  1  1
  3  5  1  0
  5  6  1  0
  6  7  1  0
  7  8  2  0
  8  9  1  0
  9 10  1  0
 10 11  1  0
 11 12  2  0
 12 13  1  0
 13 14  2  0
 14 15  1  0
 15 16  2  0
  9 17  1  0
 17 18  2  0
 18 19  1  0
 19 20  2  0
 20 21  1  0
 21 22  2  0
 22  7  1  0
 16 11  1  0
 22 17  1  0
M  END
>  <zinc_id>  (1) 
ZINC000000000073

>  <smiles>  (1) 
OC[C@@H](O)COc1nn(Cc2ccccc2)c2ccccc12

$$$$
