
     RDKit          3D

 20 22  0  0  0  0  0  0  0  0999 V2000
   -0.5141   -1.0856   -1.2937 C   0  0  0  0  0  0  0  0  0  0  0  0
   -1.5115   -0.6782   -0.2306 C   0  0  0  0  0  0  0  0  0  0  0  0
   -1.4704   -1.6584    0.9316 C   0  0  0  0  0  0  0  0  0  0  0  0
   -2.8903   -0.7468   -0.8971 C   0  0  0  0  0  0  0  0  0  0  0  0
   -3.8466   -0.1516    0.0652 C   0  0  0  0  0  0  0  0  0  0  0  0
   -4.8228   -0.7823    0.3841 O   0  0  0  0  0  0  0  0  0  0  0  0
   -3.5350    1.2039    0.5818 C   0  0  0  0  0  0  0  0  0  0  0  0
   -2.2321    1.6102   -0.0885 C   0  0  0  0  0  0  0  0  0  0  0  0
   -1.7459    2.9562    0.3750 C   0  0  0  0  0  0  0  0  0  0  0  0
   -2.3810    1.6769   -1.5948 C   0  0  0  0  0  0  0  0  0  0  0  0
   -1.2004    0.6352    0.2359 N   0  0  0  0  0  0  0  0  0  0  0  0
    0.0666    1.1291   -0.2078 C   0  0  0  0  0  0  0  0  0  0  0  0
    1.1771    0.1951    0.1278 C   0  0  0  0  0  0  0  0  0  0  0  0
    2.4723    0.2991   -0.2978 N   0  0  0  0  0  0  0  0  0  0  0  0
    3.1933   -0.7166    0.2013 C   0  0  0  0  0  0  0  0  0  0  0  0
    4.6449   -1.0206    0.0126 C   0  0  0  0  0  0  0  0  0  0  0  0
    5.5469   -0.7068    1.1682 C   0  0  0  0  0  0  0  0  0  0  0  0
    5.5552    0.1694   -0.0762 C   0  0  0  0  0  0  0  0  0  0  0  0
    2.3320   -1.4443    0.9358 N   0  0  0  0  0  0  0  0  0  0  0  0
    1.1618   -0.8840    0.8719 O   0  0  0  0  0  0  0  0  0  0  0  0
  1  2  1  0
  2  3  1  0
  2  4  1  0
  4  5  1  0
  5  6  2  0
  5  7  1  0
  7  8  1  0
  8  9  1  0
  8 10  1  0
  8 11  1  0
 11 12  1  0
 12 13  1  0
 13 14  2  0
 14 15  1  0
 15 16  1  0
 16 17  1  0
 17 18  1  0
 15 19  2  0
 19 20  1  0
 11  2  1  0
 20 13  1  0
 18 16  1  0
M  END
>  <zinc_id>  (1) 
ZINC000000000002

>  <smiles>  (1) 
CC1(C)CC(=O)CC(C)(C)N1Cc1nc(C2CC2)no1

$$$$
