
     RDKit          3D

 16 17  0  0  0  0  0  0  0  0999 V2000
   -0.0658   -0.6675   -2.0243 C   0  0  0  0  0  0  0  0  0  0  0  0
    0.0841   -0.2970   -0.5674 C   0  0  1  0  0  0  0  0  0  0  0  0
    1.3691    0.3439   -0.2682 C   0  0  0  0  0  0  0  0  0  0  0  0
    2.4757   -0.4591   -0.1035 C   0  0  0  0  0  0  0  0  0  0  0  0
    3.7009    0.0819    0.1771 C   0  0  0  0  0  0  0  0  0  0  0  0
    3.8547    1.4318    0.3004 C   0  0  0  0  0  0  0  0  0  0  0  0
    2.7542    2.2436    0.1375 C   0  0  0  0  0  0  0  0  0  0  0  0
    1.4924    1.7172   -0.1494 C   0  0  0  0  0  0  0  0  0  0  0  0
   -0.9800    0.5393   -0.1521 O   0  0  0  0  0  0  0  0  0  0  0  0
   -2.0331   -0.2771    0.1902 C   0  0  0  0  0  0  0  0  0  0  0  0
   -3.4290    0.1161    0.2370 C   0  0  0  0  0  0  0  0  0  0  0  0
   -3.7437    1.2875   -0.0508 O   0  0  0  0  0  0  0  0  0  0  0  0
   -4.4268   -0.7775    0.5941 O   0  0  0  0  0  0  0  0  0  0  0  0
   -1.6043   -1.5070    0.4817 C   0  0  0  0  0  0  0  0  0  0  0  0
   -0.1538   -1.4945    0.3170 C   0  0  0  0  0  0  0  0  0  0  0  0
    0.7052   -2.2816    0.7893 O   0  0  0  0  0  0  0  0  0  0  0  0
  2  1  1  6
  2  3  1  0
  3  4  2  0
  4  5  1  0
  5  6  2  0
  6  7  1  0
  7  8  2  0
  2  9  1  0
  9 10  1  0
 10 11  1  0
 11 12  2  0
 11 13  1  0
 10 14  2  0
 14 15  1  0
 15 16  2  0
 15  2  1  0
  8  3  1  0
M  END
>  <zinc_id>  (1) 
ZINC000000000010

>  <smiles>  (1) 
C[C@@]1(c2ccccc2)OC(C(=O)O)=CC1=O

$$$$
