
     RDKit          3D

 23 25  0  0  0  0  0  0  0  0999 V2000
   -6.0139    2.7109    0.2858 C   0  0  0  0  0  0  0  0  0  0  0  0
   -4.9214    2.2035    1.0101 O   0  0  0  0  0  0  0  0  0  0  0  0
   -4.1821    1.1703    0.4271 C   0  0  0  0  0  0  0  0  0  0  0  0
   -4.5215    0.6780   -0.8250 C   0  0  0  0  0  0  0  0  0  0  0  0
   -3.7633   -0.3397   -1.3589 C   0  0  0  0  0  0  0  0  0  0  0  0
   -2.6926   -0.8659   -0.6801 C   0  0  0  0  0  0  0  0  0  0  0  0
   -2.3200   -0.4146    0.5580 C   0  0  0  0  0  0  0  0  0  0  0  0
   -3.1101    0.6154    1.0620 C   0  0  0  0  0  0  0  0  0  0  0  0
   -1.3394   -0.6543    1.5529 C   0  0  0  0  0  0  0  0  0  0  0  0
   -0.1667   -1.6703    1.1123 C   0  0  1  0  0  0  0  0  0  0  0  0
   -1.1557   -2.9963    0.9834 C   0  0  0  0  0  0  0  0  0  0  0  0
   -0.1506   -1.2248   -0.4011 N   0  0  0  0  0  0  0  0  0  0  0  0
    1.2469   -0.8863   -0.6634 C   0  0  0  0  0  0  0  0  0  0  0  0
    1.6400    0.4002    0.0572 C   0  0  0  0  0  0  0  0  0  0  0  0
    3.0892    0.5910   -0.2531 C   0  0  0  0  0  0  0  0  0  0  0  0
    4.0417    0.1208    0.6671 C   0  0  0  0  0  0  0  0  0  0  0  0
    5.3883    0.2775    0.4041 C   0  0  0  0  0  0  0  0  0  0  0  0
    5.8708    0.8815   -0.7331 C   0  0  0  0  0  0  0  0  0  0  0  0
    7.2795    1.0213   -0.9700 N   0  0  0  0  0  0  0  0  0  0  0  0
    4.9425    1.3491   -1.6488 C   0  0  0  0  0  0  0  0  0  0  0  0
    3.5754    1.1899   -1.3810 C   0  0  0  0  0  0  0  0  0  0  0  0
   -0.6560   -2.2401   -1.2143 C   0  0  0  0  0  0  0  0  0  0  0  0
   -2.0811   -1.9170   -1.4653 C   0  0  0  0  0  0  0  0  0  0  0  0
  1  2  1  0
  2  3  1  0
  3  4  2  0
  4  5  1  0
  5  6  2  0
  6  7  1  0
  7  8  2  0
  7  9  1  0
  9 10  1  0
 10 11  1  6
 10 12  1  0
 12 13  1  0
 13 14  1  0
 14 15  1  0
 15 16  2  0
 16 17  1  0
 17 18  2  0
 18 19  1  0
 18 20  1  0
 20 21  2  0
 12 22  1  0
 22 23  1  0
  8  3  1  0
 21 15  1  0
 23  6  1  0
M  END
>  <zinc_id>  (1) 
ZINC000000000042

>  <smiles>  (1) 
COc1ccc2c(c1)C[C@@H](C)N(CCc1ccc(N)cc1)CC2

$$$$
