
     RDKit          3D

 32 36  0  0  0  0  0  0  0  0999 V2000
   -3.1091   -2.8002   -1.6136 C   0  0  0  0  0  0  0  0  0  0  0  0
   -3.5730   -1.3456   -1.5082 C   0  0  0  0  0  0  0  0  0  0  0  0
   -4.9812   -1.2098   -1.9094 C   0  0  0  0  0  0  0  0  0  0  0  0
   -2.6654   -0.5664   -2.2771 O   0  0  0  0  0  0  0  0  0  0  0  0
   -1.5231   -1.0033   -1.4002 C   0  0  1  0  0  0  0  0  0  0  0  0
   -0.5611    0.3376   -1.5742 C   0  0  0  0  0  0  0  0  0  0  0  0
    0.2140   -0.1175   -0.2315 C   0  0  1  0  0  0  0  0  0  0  0  0
    0.5148    1.3929    0.3669 C   0  0  2  0  0  0  0  0  0  0  0  0
    1.5199    1.9407   -0.6172 C   0  0  0  0  0  0  0  0  0  0  0  0
    3.0115    1.9859    0.0305 C   0  0  2  0  0  0  0  0  0  0  0  0
    3.7051    2.0652   -1.2906 F   0  0  0  0  0  0  0  0  0  0  0  0
    3.0557    0.3527    0.1713 C   0  0  0  0  0  0  0  0  0  0  0  0
    3.5139   -0.3955   -0.6868 C   0  0  0  0  0  0  0  0  0  0  0  0
    3.5062   -1.8414   -0.4802 C   0  0  0  0  0  0  0  0  0  0  0  0
    3.9513   -2.6599   -1.2997 O   0  0  0  0  0  0  0  0  0  0  0  0
    2.9122   -2.1824    0.8021 C   0  0  0  0  0  0  0  0  0  0  0  0
    2.4532   -1.3423    1.6595 C   0  0  0  0  0  0  0  0  0  0  0  0
    2.4583    0.0847    1.4889 C   0  0  1  0  0  0  0  0  0  0  0  0
    3.4683    0.5372    2.6001 C   0  0  0  0  0  0  0  0  0  0  0  0
    1.3105    0.9421    1.5885 C   0  0  1  0  0  0  0  0  0  0  0  0
    1.6505    2.1499    2.2533 F   0  0  0  0  0  0  0  0  0  0  0  0
    0.2522    0.3794    2.7243 C   0  0  2  0  0  0  0  0  0  0  0  0
    0.5083   -1.0618    2.4156 O   0  0  0  0  0  0  0  0  0  0  0  0
   -1.1091    0.5148    1.8417 C   0  0  0  0  0  0  0  0  0  0  0  0
   -1.1115   -0.3531    0.6844 C   0  0  2  0  0  0  0  0  0  0  0  0
   -1.0884   -1.8533    1.0386 C   0  0  0  0  0  0  0  0  0  0  0  0
   -2.2555   -0.1825   -0.1588 C   0  0  1  0  0  0  0  0  0  0  0  0
   -2.6081    1.1316   -0.6616 C   0  0  0  0  0  0  0  0  0  0  0  0
   -1.8609    2.0874   -0.7903 O   0  0  0  0  0  0  0  0  0  0  0  0
   -4.0181    1.3733   -1.0714 C   0  0  0  0  0  0  0  0  0  0  0  0
   -4.2251    2.6545   -1.5292 O   0  0  0  0  0  0  0  0  0  0  0  0
   -3.3161   -1.0147   -0.1538 O   0  0  0  0  0  0  0  0  0  0  0  0
  1  2  1  0
  2  3  1  0
  2  4  1  0
  4  5  1  0
  5  6  1  6
  7  6  1  6
  7  8  1  0
  8  9  1  6
  9 10  1  0
 10 11  1  6
 10 12  1  0
 12 13  2  0
 13 14  1  0
 14 15  2  0
 14 16  1  0
 16 17  2  0
 17 18  1  0
 18 19  1  1
 18 20  1  0
 20 21  1  1
 20 22  1  0
 22 23  1  6
 22 24  1  0
 24 25  1  0
 25 26  1  1
 25 27  1  0
 27 28  1  6
 28 29  2  0
 28 30  1  0
 30 31  1  0
 27 32  1  0
 32  2  1  0
 27  5  1  0
 25  7  1  0
 20  8  1  0
 18 12  1  0
M  END
>  <zinc_id>  (1) 
ZINC000000000025

>  <smiles>  (1) 
CC1(C)O[C@H]2C[C@H]3[C@@H]4C[C@H](F)C5=CC(=O)C=C[C@]5(C)[C@]4(F)[C@H](O)C[C@@]3(C)[C@]2(C(=O)CO)O1

$$$$
