
     RDKit          3D

 32 36  0  0  0  0  0  0  0  0999 V2000
   -5.2760   -0.1867   -0.0761 C   0  0  0  0  0  0  0  0  0  0  0  0
   -4.0057   -0.8691   -0.6147 C   0  0  0  0  0  0  0  0  0  0  0  0
   -4.4871   -2.0662   -1.3670 C   0  0  0  0  0  0  0  0  0  0  0  0
   -3.2625   -1.1687    0.5241 O   0  0  0  0  0  0  0  0  0  0  0  0
   -3.1773    0.3451    0.8094 C   0  0  1  0  0  0  0  0  0  0  0  0
   -1.8095    0.2476    1.7902 C   0  0  0  0  0  0  0  0  0  0  0  0
   -1.0540   -0.9277    0.9037 C   0  0  2  0  0  0  0  0  0  0  0  0
    0.4156   -0.4875    1.5787 C   0  0  2  0  0  0  0  0  0  0  0  0
    0.5550    1.0546    1.0929 C   0  0  0  0  0  0  0  0  0  0  0  0
    1.8969    1.3547    2.0169 C   0  0  2  0  0  0  0  0  0  0  0  0
    2.0076    2.7883    1.5012 F   0  0  0  0  0  0  0  0  0  0  0  0
    2.9561    0.7235    1.0213 C   0  0  0  0  0  0  0  0  0  0  0  0
    3.8794    1.4739    0.4912 C   0  0  0  0  0  0  0  0  0  0  0  0
    4.8660    0.8486   -0.4370 C   0  0  0  0  0  0  0  0  0  0  0  0
    5.7538    1.5440   -0.9559 O   0  0  0  0  0  0  0  0  0  0  0  0
    4.6731   -0.5757   -0.6445 C   0  0  0  0  0  0  0  0  0  0  0  0
    3.7522   -1.3269   -0.1162 C   0  0  0  0  0  0  0  0  0  0  0  0
    2.7785   -0.7045    0.7947 C   0  0  1  0  0  0  0  0  0  0  0  0
    3.1549   -1.3641    2.1605 C   0  0  0  0  0  0  0  0  0  0  0  0
    1.4636   -1.1747    0.6052 C   0  0  1  0  0  0  0  0  0  0  0  0
    1.3320   -2.5207    1.0188 F   0  0  0  0  0  0  0  0  0  0  0  0
    0.8809   -1.3164   -0.8891 C   0  0  2  0  0  0  0  0  0  0  0  0
    2.1483   -0.8063   -1.6012 O   0  0  0  0  0  0  0  0  0  0  0  0
    0.1515    0.1870   -1.0084 C   0  0  0  0  0  0  0  0  0  0  0  0
   -1.1478   -0.1403   -0.4926 C   0  0  1  0  0  0  0  0  0  0  0  0
   -1.4624   -1.4001   -1.3742 C   0  0  0  0  0  0  0  0  0  0  0  0
   -2.3076    0.6407   -0.5592 C   0  0  2  0  0  0  0  0  0  0  0  0
   -2.3274    2.0927   -0.7096 C   0  0  0  0  0  0  0  0  0  0  0  0
   -1.6292    2.9049   -0.1498 O   0  0  0  0  0  0  0  0  0  0  0  0
   -3.2968    2.7144   -1.6475 C   0  0  0  0  0  0  0  0  0  0  0  0
   -4.0797    1.8071   -2.3191 O   0  0  0  0  0  0  0  0  0  0  0  0
   -3.3419    0.0565   -1.3466 O   0  0  0  0  0  0  0  0  0  0  0  0
  1  2  1  0
  2  3  1  0
  2  4  1  0
  4  5  1  0
  5  6  1  1
  7  6  1  1
  7  8  1  0
  8  9  1  6
  9 10  1  0
 10 11  1  6
 10 12  1  0
 12 13  2  0
 13 14  1  0
 14 15  2  0
 14 16  1  0
 16 17  2  0
 17 18  1  0
 18 19  1  1
 18 20  1  0
 20 21  1  1
 20 22  1  0
 22 23  1  6
 22 24  1  0
 24 25  1  0
 25 26  1  6
 25 27  1  0
 27 28  1  6
 28 29  2  0
 28 30  1  0
 30 31  1  0
 27 32  1  0
 32  2  1  0
 27  5  1  0
 25  7  1  0
 20  8  1  0
 18 12  1  0
M  END
>  <zinc_id>  (1) 
ZINC000000000016

>  <smiles>  (1) 
CC1(C)O[C@H]2C[C@@H]3[C@@H]4C[C@H](F)C5=CC(=O)C=C[C@]5(C)[C@]4(F)[C@H](O)C[C@]3(C)[C@@]2(C(=O)CO)O1

$$$$
