
     RDKit          3D

 16 16  0  0  0  0  0  0  0  0999 V2000
   -5.6036    0.9442    0.1320 C   0  0  0  0  0  0  0  0  0  0  0  0
   -4.5587    0.2151    0.7347 O   0  0  0  0  0  0  0  0  0  0  0  0
   -3.2355    0.3199    0.3274 C   0  0  0  0  0  0  0  0  0  0  0  0
   -2.8438    1.1477   -0.7005 C   0  0  0  0  0  0  0  0  0  0  0  0
   -1.5409    1.2267   -1.0742 C   0  0  0  0  0  0  0  0  0  0  0  0
   -0.5700    0.4791   -0.4342 C   0  0  0  0  0  0  0  0  0  0  0  0
    0.8296    0.5633   -0.8349 C   0  0  0  0  0  0  0  0  0  0  0  0
    1.1105    1.3405   -1.7810 O   0  0  0  0  0  0  0  0  0  0  0  0
    1.8498   -0.2177   -0.1677 C   0  0  0  0  0  0  0  0  0  0  0  0
    1.3410   -1.3688    1.2539 Br  0  0  0  0  0  0  0  0  0  0  0  0
    3.1296   -0.1804   -0.4888 C   0  0  0  0  0  0  0  0  0  0  0  0
    4.1083   -0.9954    0.2261 C   0  0  0  0  0  0  0  0  0  0  0  0
    3.7917   -1.7644    1.1708 O   0  0  0  0  0  0  0  0  0  0  0  0
    5.4447   -0.9305   -0.1388 O   0  0  0  0  0  0  0  0  0  0  0  0
   -0.9683   -0.3484    0.5947 C   0  0  0  0  0  0  0  0  0  0  0  0
   -2.2843   -0.4308    0.9750 C   0  0  0  0  0  0  0  0  0  0  0  0
  1  2  1  0
  2  3  1  0
  3  4  2  0
  4  5  1  0
  5  6  2  0
  6  7  1  0
  7  8  2  0
  7  9  1  0
  9 10  1  0
  9 11  2  0
 11 12  1  0
 12 13  2  0
 12 14  1  0
  6 15  1  0
 15 16  2  0
 16  3  1  0
M  END
>  <zinc_id>  (1) 
ZINC000000000093

>  <smiles>  (1) 
COc1ccc(C(=O)/C(Br)=C/C(=O)O)cc1

$$$$
