
     RDKit          3D

 16 16  0  0  0  0  0  0  0  0999 V2000
   -5.2045   -0.7323   -0.7911 C   0  0  0  0  0  0  0  0  0  0  0  0
   -5.2112    0.4285    0.1783 C   0  0  0  0  0  0  0  0  0  0  0  0
   -4.0844    1.2451   -0.0821 O   0  0  0  0  0  0  0  0  0  0  0  0
   -2.7926    0.6989    0.0246 C   0  0  0  0  0  0  0  0  0  0  0  0
   -2.6225   -0.6237    0.3805 C   0  0  0  0  0  0  0  0  0  0  0  0
   -1.3882   -1.2168    0.5019 C   0  0  0  0  0  0  0  0  0  0  0  0
   -0.2617   -0.4497    0.2550 C   0  0  0  0  0  0  0  0  0  0  0  0
    1.0086   -1.0529    0.3780 N   0  0  0  0  0  0  0  0  0  0  0  0
    2.1500   -0.2628    0.1244 C   0  0  0  0  0  0  0  0  0  0  0  0
    2.0469    0.9359   -0.1998 O   0  0  0  0  0  0  0  0  0  0  0  0
    3.4792   -0.8922    0.2526 C   0  0  0  0  0  0  0  0  0  0  0  0
    4.5676    0.3176   -0.1140 C   0  0  1  0  0  0  0  0  0  0  0  0
    5.8806   -0.7092    0.1233 C   0  0  0  0  0  0  0  0  0  0  0  0
    4.5220    0.0076   -1.6221 O   0  0  0  0  0  0  0  0  0  0  0  0
   -0.4218    0.8626   -0.0984 C   0  0  0  0  0  0  0  0  0  0  0  0
   -1.6681    1.4435   -0.2161 C   0  0  0  0  0  0  0  0  0  0  0  0
  1  2  1  0
  2  3  1  0
  3  4  1  0
  4  5  2  0
  5  6  1  0
  6  7  2  0
  7  8  1  0
  8  9  1  0
  9 10  2  0
  9 11  1  0
 11 12  1  0
 12 13  1  1
 12 14  1  0
  7 15  1  0
 15 16  2  0
 16  4  1  0
M  END
>  <zinc_id>  (1) 
ZINC000000000099

>  <smiles>  (1) 
CCOc1ccc(NC(=O)C[C@@H](C)O)cc1

$$$$
