
     RDKit          3D

 17 18  0  0  0  0  0  0  0  0999 V2000
    1.9652   -1.3199    1.7548 C   0  0  0  0  0  0  0  0  0  0  0  0
    2.4816   -0.3011    0.7980 C   0  0  0  0  0  0  0  0  0  0  0  0
    3.7653    0.1958    0.8666 C   0  0  0  0  0  0  0  0  0  0  0  0
    4.2267    1.1478   -0.0381 C   0  0  0  0  0  0  0  0  0  0  0  0
    3.3989    1.6070   -1.0176 C   0  0  0  0  0  0  0  0  0  0  0  0
    2.1166    1.1204   -1.0976 C   0  0  0  0  0  0  0  0  0  0  0  0
    1.6727    0.1645   -0.1797 C   0  0  0  0  0  0  0  0  0  0  0  0
    0.3217   -0.2647   -0.3658 N   0  0  0  0  0  0  0  0  0  0  0  0
   -0.5110    0.1927   -1.3448 C   0  0  0  0  0  0  0  0  0  0  0  0
   -0.1246    1.0684   -2.1916 O   0  0  0  0  0  0  0  0  0  0  0  0
   -2.0123   -0.2954   -1.5392 C   0  0  2  0  0  0  0  0  0  0  0  0
   -2.7097    0.9787   -0.7531 C   0  0  0  0  0  0  0  0  0  0  0  0
   -2.0475   -1.2952   -0.3449 N   0  0  0  0  0  0  0  0  0  0  0  0
   -1.8634   -0.6595    0.8761 C   0  0  0  0  0  0  0  0  0  0  0  0
   -3.1254   -0.0260    1.3045 C   0  0  0  0  0  0  0  0  0  0  0  0
   -4.1381   -0.5845    0.3253 C   0  0  0  0  0  0  0  0  0  0  0  0
   -3.4166   -1.7290   -0.3601 C   0  0  0  0  0  0  0  0  0  0  0  0
  1  2  1  0
  2  3  2  0
  3  4  1  0
  4  5  2  0
  5  6  1  0
  6  7  2  0
  7  8  1  0
  8  9  1  0
  9 10  2  0
  9 11  1  0
 11 12  1  1
 11 13  1  0
 13 14  1  0
 14 15  1  0
 15 16  1  0
 16 17  1  0
  7  2  1  0
 17 13  1  0
M  END
>  <zinc_id>  (1) 
ZINC000000000051

>  <smiles>  (1) 
Cc1ccccc1NC(=O)[C@H](C)N1CCCC1

$$$$
