
     RDKit          3D

 20 22  0  0  0  0  0  0  0  0999 V2000
    5.6816    0.9772   -0.4037 C   0  0  0  0  0  0  0  0  0  0  0  0
    5.1361   -0.2388    0.3126 C   0  0  0  0  0  0  0  0  0  0  0  0
    5.5132   -0.1758    1.7869 C   0  0  0  0  0  0  0  0  0  0  0  0
    3.6539   -0.3004    0.1785 C   0  0  0  0  0  0  0  0  0  0  0  0
    3.1502   -1.3046   -0.3786 O   0  0  0  0  0  0  0  0  0  0  0  0
    2.8200    0.7268    0.6557 N   0  0  0  0  0  0  0  0  0  0  0  0
    1.4062    0.6576    0.5223 C   0  0  0  0  0  0  0  0  0  0  0  0
    0.5952    1.6682    0.9924 C   0  0  0  0  0  0  0  0  0  0  0  0
   -0.7745    1.6174    0.8717 C   0  0  0  0  0  0  0  0  0  0  0  0
   -1.3406    0.5217    0.2625 C   0  0  0  0  0  0  0  0  0  0  0  0
   -0.5607   -0.4501   -0.1895 C   0  0  0  0  0  0  0  0  0  0  0  0
   -1.1985   -1.7523   -0.9112 C   0  0  2  0  0  0  0  0  0  0  0  0
   -2.1634   -0.8905   -1.9510 C   0  0  0  0  0  0  0  0  0  0  0  0
   -3.1022   -0.3151   -1.0716 N   0  0  0  0  0  0  0  0  0  0  0  0
   -3.9091    0.8671   -0.9888 C   0  0  0  0  0  0  0  0  0  0  0  0
   -5.2541    0.5520   -0.4537 C   0  0  0  0  0  0  0  0  0  0  0  0
   -4.8526   -0.8025    0.7274 S   0  0  0  0  0  0  0  0  0  0  0  0
   -3.2476   -1.1875   -0.0279 C   0  0  0  0  0  0  0  0  0  0  0  0
   -2.3475   -1.9500    0.1551 N   0  0  0  0  0  0  0  0  0  0  0  0
    0.7944   -0.4367   -0.0892 C   0  0  0  0  0  0  0  0  0  0  0  0
  1  2  1  0
  2  3  1  0
  2  4  1  0
  4  5  2  0
  4  6  1  0
  6  7  1  0
  7  8  2  0
  8  9  1  0
  9 10  2  0
 10 11  1  0
 12 11  1  1
 12 13  1  0
 13 14  1  0
 14 15  1  0
 15 16  1  0
 16 17  1  0
 17 18  1  0
 18 19  2  0
 11 20  2  0
 20  7  1  0
 19 12  1  0
 18 14  1  0
M  END
>  <zinc_id>  (1) 
ZINC000000000109

>  <smiles>  (1) 
CC(C)C(=O)Nc1cccc([C@@H]2CN3CCSC3=N2)c1

$$$$
