
     RDKit          3D

 13 13  0  0  0  0  0  0  0  0999 V2000
   -3.2821    1.5775    0.9919 O   0  0  0  0  0  0  0  0  0  0  0  0
   -3.1726    0.7521   -0.1292 C   0  0  0  0  0  0  0  0  0  0  0  0
   -3.2421   -0.7785    0.4589 C   0  0  1  0  0  0  0  0  0  0  0  0
   -3.1073   -1.4341   -0.8999 O   0  0  0  0  0  0  0  0  0  0  0  0
   -1.6460   -0.8647    0.8106 C   0  0  0  0  0  0  0  0  0  0  0  0
   -0.9502   -0.1773   -0.1573 O   0  0  0  0  0  0  0  0  0  0  0  0
    0.3922   -0.0791   -0.1256 C   0  0  0  0  0  0  0  0  0  0  0  0
    0.9775    0.6394   -1.1566 C   0  0  0  0  0  0  0  0  0  0  0  0
    2.3369    0.8041   -1.2254 C   0  0  0  0  0  0  0  0  0  0  0  0
    3.1260    0.2389   -0.2433 C   0  0  0  0  0  0  0  0  0  0  0  0
    4.8630    0.4427   -0.3209 Cl  0  0  0  0  0  0  0  0  0  0  0  0
    2.5353   -0.4740    0.7783 C   0  0  0  0  0  0  0  0  0  0  0  0
    1.1695   -0.6468    0.8587 C   0  0  0  0  0  0  0  0  0  0  0  0
  1  2  1  0
  2  3  1  0
  3  4  1  6
  3  5  1  0
  5  6  1  0
  6  7  1  0
  7  8  2  0
  8  9  1  0
  9 10  2  0
 10 11  1  0
 10 12  1  0
 12 13  2  0
 13  7  1  0
M  END
>  <zinc_id>  (1) 
ZINC000000000135

>  <smiles>  (1) 
OC[C@@H](O)COc1ccc(Cl)cc1

$$$$
