
     RDKit          3D

 21 25  0  0  0  0  0  0  0  0999 V2000
    3.2511    2.6103   -0.4358 O   0  0  0  0  0  0  0  0  0  0  0  0
    2.8761    1.6270    0.6579 C   0  0  2  0  0  0  0  0  0  0  0  0
    3.6006    0.3824   -0.0488 C   0  0  0  0  0  0  0  0  0  0  0  0
    3.0711   -0.7632    0.0012 C   0  0  0  0  0  0  0  0  0  0  0  0
    3.4277   -2.1646   -0.5349 C   0  0  0  0  0  0  0  0  0  0  0  0
    2.0699   -2.4909   -1.1255 C   0  0  0  0  0  0  0  0  0  0  0  0
    1.0803   -1.6037   -0.5906 N   0  0  0  0  0  0  0  0  0  0  0  0
   -0.0510   -2.3192    0.0533 C   0  0  0  0  0  0  0  0  0  0  0  0
   -0.9420   -1.1723    0.2656 C   0  0  0  0  0  0  0  0  0  0  0  0
   -2.2623   -1.3137   -0.0110 C   0  0  0  0  0  0  0  0  0  0  0  0
   -3.1645   -0.2596    0.1505 C   0  0  0  0  0  0  0  0  0  0  0  0
   -2.6827    0.9377    0.6002 C   0  0  0  0  0  0  0  0  0  0  0  0
   -1.3536    1.0889    0.8816 C   0  0  0  0  0  0  0  0  0  0  0  0
   -0.4902    0.0261    0.7110 C   0  0  0  0  0  0  0  0  0  0  0  0
    1.0036    0.2464    1.0638 C   0  0  2  0  0  0  0  0  0  0  0  0
    1.3954    1.2184   -0.1976 C   0  0  1  0  0  0  0  0  0  0  0  0
    0.7322    2.4290    0.3466 O   0  0  0  0  0  0  0  0  0  0  0  0
    1.7233   -1.1393    0.7411 C   0  0  2  0  0  0  0  0  0  0  0  0
   -3.7865    1.7911    0.6646 O   0  0  0  0  0  0  0  0  0  0  0  0
   -4.9655    1.0048    0.6804 C   0  0  0  0  0  0  0  0  0  0  0  0
   -4.5331   -0.1358   -0.0538 O   0  0  0  0  0  0  0  0  0  0  0  0
  2  1  1  6
  2  3  1  0
  3  4  2  0
  4  5  1  0
  5  6  1  0
  6  7  1  0
  7  8  1  0
  8  9  1  0
  9 10  2  0
 10 11  1  0
 11 12  2  0
 12 13  1  0
 13 14  2  0
 15 14  1  6
 15 16  1  0
 16 17  1  1
 15 18  1  0
 12 19  1  0
 19 20  1  0
 20 21  1  0
 16  2  1  0
 18  4  1  6
 18  7  1  0
 14  9  1  0
 21 11  1  0
M  END
>  <zinc_id>  (1) 
ZINC000000000024

>  <smiles>  (1) 
O[C@@H]1C=C2CCN3Cc4cc5c(cc4[C@H]([C@H]1O)[C@H]23)OCO5

$$$$
