
     RDKit          3D

 21 23  0  0  0  0  0  0  0  0999 V2000
   -5.2763    2.4001    0.7940 C   0  0  0  0  0  0  0  0  0  0  0  0
   -5.1639    0.9942    0.9761 O   0  0  0  0  0  0  0  0  0  0  0  0
   -4.0039    0.3335    0.6489 C   0  0  0  0  0  0  0  0  0  0  0  0
   -3.9476   -1.0243    0.8420 C   0  0  0  0  0  0  0  0  0  0  0  0
   -2.7980   -1.7223    0.5247 C   0  0  0  0  0  0  0  0  0  0  0  0
   -1.6568   -1.1160    0.0047 C   0  0  0  0  0  0  0  0  0  0  0  0
   -0.4887   -1.9216   -0.3163 C   0  0  0  0  0  0  0  0  0  0  0  0
   -0.7170   -3.1530   -0.5829 O   0  0  0  0  0  0  0  0  0  0  0  0
    0.8722   -1.4087   -0.3478 C   0  0  0  0  0  0  0  0  0  0  0  0
    1.8891   -2.0375   -1.0638 C   0  0  0  0  0  0  0  0  0  0  0  0
    3.0606   -1.3208   -0.8997 C   0  0  0  0  0  0  0  0  0  0  0  0
    2.7018   -0.2700   -0.0779 C   0  0  0  0  0  0  0  0  0  0  0  0
    1.4203   -0.3312    0.2386 N   0  0  0  0  0  0  0  0  0  0  0  0
    1.0025    0.7700    1.0946 C   0  0  0  0  0  0  0  0  0  0  0  0
    1.9585    1.8890    0.6236 C   0  0  0  0  0  0  0  0  0  0  0  0
    3.3240    0.9803    0.6438 C   0  0  2  0  0  0  0  0  0  0  0  0
    3.9585    1.6799   -0.6229 C   0  0  0  0  0  0  0  0  0  0  0  0
    3.8197    1.2037   -1.7401 O   0  0  0  0  0  0  0  0  0  0  0  0
    4.6735    2.8353   -0.4468 O   0  0  0  0  0  0  0  0  0  0  0  0
   -1.7486    0.2419   -0.1748 C   0  0  0  0  0  0  0  0  0  0  0  0
   -2.8799    0.9775    0.1302 C   0  0  0  0  0  0  0  0  0  0  0  0
  1  2  1  0
  2  3  1  0
  3  4  2  0
  4  5  1  0
  5  6  2  0
  6  7  1  0
  7  8  2  0
  7  9  1  0
  9 10  2  0
 10 11  1  0
 11 12  2  0
 12 13  1  0
 13 14  1  0
 14 15  1  0
 15 16  1  0
 16 17  1  6
 17 18  2  0
 17 19  1  0
  6 20  1  0
 20 21  2  0
 21  3  1  0
 13  9  1  0
 16 12  1  0
M  END
>  <zinc_id>  (1) 
ZINC000000000043

>  <smiles>  (1) 
COc1ccc(C(=O)c2ccc3n2CC[C@@H]3C(=O)O)cc1

$$$$
