
     RDKit          3D

 20 20  0  0  0  0  0  0  0  0999 V2000
   -4.0297    1.5541    2.3960 C   0  0  0  0  0  0  0  0  0  0  0  0
   -5.2624    1.0582    1.6375 C   0  0  0  0  0  0  0  0  0  0  0  0
   -4.8444   -0.1255    0.9855 O   0  0  0  0  0  0  0  0  0  0  0  0
   -3.7942   -0.1152    0.0559 C   0  0  0  0  0  0  0  0  0  0  0  0
   -3.2365    0.9715   -0.1864 O   0  0  0  0  0  0  0  0  0  0  0  0
   -3.3549   -1.2734   -0.6060 N   0  0  0  0  0  0  0  0  0  0  0  0
   -2.3171   -1.2719   -1.5294 N   0  0  0  0  0  0  0  0  0  0  0  0
   -1.0080   -0.8442   -1.0876 C   0  0  0  0  0  0  0  0  0  0  0  0
    0.0695   -0.8598   -1.9297 C   0  0  0  0  0  0  0  0  0  0  0  0
    1.2950   -0.4434   -1.4666 C   0  0  0  0  0  0  0  0  0  0  0  0
    1.4243   -0.0180   -0.1713 C   0  0  0  0  0  0  0  0  0  0  0  0
    2.6874    0.4193    0.3899 N   0  0  0  0  0  0  0  0  0  0  0  0
    3.2143    1.6397   -0.1313 C   0  0  0  0  0  0  0  0  0  0  0  0
    2.3678    2.2421   -1.2169 C   0  0  0  0  0  0  0  0  0  0  0  0
    3.2188   -0.4086    1.3864 C   0  0  0  0  0  0  0  0  0  0  0  0
    4.6138   -1.1151    0.8322 C   0  0  1  0  0  0  0  0  0  0  0  0
    4.1067   -1.2236   -0.7543 C   0  0  0  0  0  0  0  0  0  0  0  0
    5.3156    0.2452    0.5947 O   0  0  0  0  0  0  0  0  0  0  0  0
    0.3522   -0.0146    0.6283 N   0  0  0  0  0  0  0  0  0  0  0  0
   -0.8181   -0.4168    0.1732 N   0  0  0  0  0  0  0  0  0  0  0  0
  1  2  1  0
  2  3  1  0
  3  4  1  0
  4  5  2  0
  4  6  1  0
  6  7  1  0
  7  8  1  0
  8  9  2  0
  9 10  1  0
 10 11  2  0
 11 12  1  0
 12 13  1  0
 13 14  1  0
 12 15  1  0
 15 16  1  0
 16 17  1  6
 16 18  1  0
 11 19  1  0
 19 20  2  0
 20  8  1  0
M  END
>  <zinc_id>  (1) 
ZINC000000000113

>  <smiles>  (1) 
CCOC(=O)NNc1ccc(N(CC)C[C@@H](C)O)nn1

$$$$
