
     RDKit          3D

 22 23  0  0  0  0  0  0  0  0999 V2000
   -2.0550   -4.2326   -0.7551 C   0  0  0  0  0  0  0  0  0  0  0  0
   -1.7980   -2.7934   -0.4918 C   0  0  0  0  0  0  0  0  0  0  0  0
   -2.0515   -1.8702   -1.6191 C   0  0  0  0  0  0  0  0  0  0  0  0
   -0.5912   -2.5188    0.2925 C   0  0  0  0  0  0  0  0  0  0  0  0
    0.0980   -3.5230    0.6253 O   0  0  0  0  0  0  0  0  0  0  0  0
   -0.1571   -1.2518    0.6901 N   0  0  0  0  0  0  0  0  0  0  0  0
    1.0509   -0.9483    1.4677 C   0  0  0  0  0  0  0  0  0  0  0  0
    1.5548    0.3265    0.6191 C   0  0  1  0  0  0  0  0  0  0  0  0
    1.6210   -0.4770   -0.7933 C   0  0  0  0  0  0  0  0  0  0  0  0
    2.6157   -1.5651   -0.4925 C   0  0  0  0  0  0  0  0  0  0  0  0
    3.8998   -1.1439   -0.1140 N   0  0  0  0  0  0  0  0  0  0  0  0
    4.0499   -0.4973    1.1256 C   0  0  0  0  0  0  0  0  0  0  0  0
    4.7575   -0.6971   -1.1669 C   0  0  0  0  0  0  0  0  0  0  0  0
    0.1711    0.9573    0.4177 C   0  0  0  0  0  0  0  0  0  0  0  0
   -0.1978    2.2889    0.2097 C   0  0  0  0  0  0  0  0  0  0  0  0
   -1.5129    2.6428    0.0241 C   0  0  0  0  0  0  0  0  0  0  0  0
   -1.9264    4.0015   -0.1921 N   0  0  0  0  0  4  0  0  0  0  0  0
   -3.1236    4.2995   -0.3579 O   0  0  0  0  0  0  0  0  0  0  0  0
   -1.0299    5.0348   -0.2271 O   0  0  0  0  0  1  0  0  0  0  0  0
   -2.4592    1.6445    0.0490 C   0  0  0  0  0  0  0  0  0  0  0  0
   -2.1453    0.3167    0.2509 C   0  0  0  0  0  0  0  0  0  0  0  0
   -0.7709    0.0060    0.4380 C   0  0  0  0  0  0  0  0  0  0  0  0
  1  2  1  0
  2  3  1  0
  2  4  1  0
  4  5  2  0
  4  6  1  0
  6  7  1  0
  7  8  1  0
  8  9  1  6
  9 10  1  0
 10 11  1  0
 11 12  1  0
 11 13  1  0
  8 14  1  0
 14 15  2  0
 15 16  1  0
 16 17  1  0
 17 18  2  0
 17 19  1  0
 16 20  2  0
 20 21  1  0
 21 22  2  0
 22  6  1  0
 22 14  1  0
M  CHG  2  17   1  19  -1
M  END
>  <zinc_id>  (1) 
ZINC000000000041

>  <smiles>  (1) 
CC(C)C(=O)N1C[C@@H](CCN(C)C)c2cc([N+](=O)[O-])ccc21

$$$$
