
     RDKit          3D

 20 20  0  0  0  0  0  0  0  0999 V2000
    2.4639    0.5218   -0.2745 N   0  0  0  0  0  0  0  0  0  0  0  0
    3.7972   -0.0241    0.3376 C   0  0  1  0  0  0  0  0  0  0  0  0
    3.4057   -1.6026    0.1897 C   0  0  0  0  0  0  0  0  0  0  0  0
    2.2330   -1.8951    0.9738 C   0  0  0  0  0  0  0  0  0  0  0  0
    0.9636   -1.2538    0.7612 C   0  0  0  0  0  0  0  0  0  0  0  0
    0.5603   -0.1514    1.4760 C   0  0  0  0  0  0  0  0  0  0  0  0
   -0.6645    0.4118    1.2358 C   0  0  0  0  0  0  0  0  0  0  0  0
   -1.5557   -0.0574    0.3010 C   0  0  0  0  0  0  0  0  0  0  0  0
   -2.8225    0.5343    0.0724 N   0  0  0  0  0  0  0  0  0  0  0  0
   -3.2287    1.6756    0.8498 C   0  0  0  0  0  0  0  0  0  0  0  0
   -3.3257    2.9464    0.0470 C   0  0  0  0  0  0  0  0  0  0  0  0
   -3.8429    4.2209    1.2096 Cl  0  0  0  0  0  0  0  0  0  0  0  0
   -3.7708    0.0676   -0.9114 C   0  0  0  0  0  0  0  0  0  0  0  0
   -3.2621   -1.1247   -1.6755 C   0  0  0  0  0  0  0  0  0  0  0  0
   -4.5605   -1.5612   -2.8421 Cl  0  0  0  0  0  0  0  0  0  0  0  0
   -1.1304   -1.1730   -0.4124 C   0  0  0  0  0  0  0  0  0  0  0  0
    0.0782   -1.7576   -0.2011 C   0  0  0  0  0  0  0  0  0  0  0  0
    4.6845    0.0463   -0.9668 C   0  0  0  0  0  0  0  0  0  0  0  0
    5.8358   -0.3854   -0.8760 O   0  0  0  0  0  0  0  0  0  0  0  0
    4.1417    0.5615   -2.0702 O   0  0  0  0  0  0  0  0  0  0  0  0
  2  1  1  6
  2  3  1  0
  3  4  1  0
  4  5  1  0
  5  6  2  0
  6  7  1  0
  7  8  2  0
  8  9  1  0
  9 10  1  0
 10 11  1  0
 11 12  1  0
  9 13  1  0
 13 14  1  0
 14 15  1  0
  8 16  1  0
 16 17  2  0
  2 18  1  0
 18 19  2  0
 18 20  1  0
 17  5  1  0
M  END
>  <zinc_id>  (1) 
ZINC000000000027

>  <smiles>  (1) 
N[C@@H](CCc1ccc(N(CCCl)CCCl)cc1)C(=O)O

$$$$
