
     RDKit          3D

 14 16  0  0  0  0  0  0  0  0999 V2000
    3.6618   -1.0537   -0.0474 C   0  0  0  0  0  0  0  0  0  0  0  0
    2.8959   -0.4281   -0.8589 C   0  0  0  0  0  0  0  0  0  0  0  0
    1.7848    0.2894   -0.3659 N   0  0  0  0  0  0  0  0  0  0  0  0
    0.7403    1.0847   -0.9640 C   0  0  0  0  0  0  0  0  0  0  0  0
   -0.1153    1.5421    0.2501 C   0  0  1  0  0  0  0  0  0  0  0  0
   -1.3065    0.5014    0.0783 C   0  0  0  0  0  0  0  0  0  0  0  0
   -1.1206   -0.8006    0.0835 C   0  0  0  0  0  0  0  0  0  0  0  0
   -2.1769   -1.6642   -0.0679 C   0  0  0  0  0  0  0  0  0  0  0  0
   -3.4433   -1.1395   -0.2265 C   0  0  0  0  0  0  0  0  0  0  0  0
   -3.6252    0.2271   -0.2302 C   0  0  0  0  0  0  0  0  0  0  0  0
   -2.5353    1.0734   -0.0746 C   0  0  0  0  0  0  0  0  0  0  0  0
    0.6149    0.9044    1.3868 N   0  0  0  0  0  0  0  0  0  0  0  0
    1.6195    0.2461    1.0256 C   0  0  0  0  0  0  0  0  0  0  0  0
    3.0057   -0.7826    1.5845 S   0  0  0  0  0  0  0  0  0  0  0  0
  1  2  2  0
  2  3  1  0
  3  4  1  0
  4  5  1  0
  5  6  1  6
  6  7  2  0
  7  8  1  0
  8  9  2  0
  9 10  1  0
 10 11  2  0
  5 12  1  0
 12 13  2  0
 13 14  1  0
 14  1  1  0
 13  3  1  0
 11  6  1  0
M  END
>  <zinc_id>  (1) 
ZINC000000000044

>  <smiles>  (1) 
C1=CN2C[C@@H](c3ccccc3)N=C2S1

$$$$
