
     RDKit          3D

 22 23  0  0  0  0  0  0  0  0999 V2000
    4.0572   -0.0914    0.3502 C   0  0  0  0  0  0  0  0  0  0  0  0
    3.7870   -0.8604   -0.9047 C   0  0  0  0  0  0  0  0  0  0  0  0
    3.6244    0.0388   -2.0998 C   0  0  0  0  0  0  0  0  0  0  0  0
    2.6776   -1.8172   -0.7787 C   0  0  0  0  0  0  0  0  0  0  0  0
    2.9368   -3.0471   -0.9776 O   0  0  0  0  0  0  0  0  0  0  0  0
    1.3594   -1.4602   -0.4548 N   0  0  0  0  0  0  0  0  0  0  0  0
    0.1442   -2.2859   -0.2986 C   0  0  0  0  0  0  0  0  0  0  0  0
   -0.2484   -1.6679    1.1546 C   0  0  2  0  0  0  0  0  0  0  0  0
   -1.8742   -1.7269    0.9941 C   0  0  0  0  0  0  0  0  0  0  0  0
   -2.2977   -0.9152   -0.1529 C   0  0  0  0  0  0  0  0  0  0  0  0
   -3.7207   -1.0047   -0.2427 N   0  0  0  0  0  0  0  0  0  0  0  0
   -4.2718   -0.2534   -1.3277 C   0  0  0  0  0  0  0  0  0  0  0  0
   -4.2574   -2.3163   -0.0815 C   0  0  0  0  0  0  0  0  0  0  0  0
   -0.0781   -0.1525    0.7103 C   0  0  0  0  0  0  0  0  0  0  0  0
   -0.7348    0.9653    1.1434 C   0  0  0  0  0  0  0  0  0  0  0  0
   -0.3553    2.1807    0.6292 C   0  0  0  0  0  0  0  0  0  0  0  0
   -1.0086    3.4032    1.0445 N   0  0  0  0  0  4  0  0  0  0  0  0
   -0.6364    4.4840    0.5560 O   0  0  0  0  0  0  0  0  0  0  0  0
   -2.0043    3.2914    1.9574 O   0  0  0  0  0  1  0  0  0  0  0  0
    0.6645    2.2529   -0.2996 C   0  0  0  0  0  0  0  0  0  0  0  0
    1.3072    1.1070   -0.7173 C   0  0  0  0  0  0  0  0  0  0  0  0
    0.9295   -0.1242   -0.2037 C   0  0  0  0  0  0  0  0  0  0  0  0
  1  2  1  0
  2  3  1  0
  2  4  1  0
  4  5  2  0
  4  6  1  0
  6  7  1  0
  7  8  1  0
  8  9  1  6
  9 10  1  0
 10 11  1  0
 11 12  1  0
 11 13  1  0
  8 14  1  0
 14 15  2  0
 15 16  1  0
 16 17  1  0
 17 18  2  0
 17 19  1  0
 16 20  2  0
 20 21  1  0
 21 22  2  0
 22  6  1  0
 22 14  1  0
M  CHG  2  17   1  19  -1
M  END
>  <zinc_id>  (1) 
ZINC000000000059

>  <smiles>  (1) 
CC(C)C(=O)N1C[C@H](CCN(C)C)c2cc([N+](=O)[O-])ccc21

$$$$
