
     RDKit          3D

 25 28  0  0  0  0  0  0  0  0999 V2000
    5.2189   -2.1504   -0.2429 C   0  0  0  0  0  0  0  0  0  0  0  0
    3.8286   -1.9093   -0.1941 O   0  0  0  0  0  0  0  0  0  0  0  0
    3.2635   -0.6718   -0.1317 C   0  0  0  0  0  0  0  0  0  0  0  0
    4.0298    0.4579   -0.1102 C   0  0  0  0  0  0  0  0  0  0  0  0
    3.4616    1.7165   -0.0475 C   0  0  0  0  0  0  0  0  0  0  0  0
    2.0912    1.8469   -0.0050 C   0  0  0  0  0  0  0  0  0  0  0  0
    1.3061    0.7082   -0.0262 C   0  0  0  0  0  0  0  0  0  0  0  0
    1.8791   -0.5397   -0.0885 C   0  0  0  0  0  0  0  0  0  0  0  0
    1.0566   -1.6216   -0.1092 C   0  0  0  0  0  0  0  0  0  0  0  0
   -0.3582   -1.4860   -0.0643 C   0  0  0  0  0  0  0  0  0  0  0  0
   -1.0274   -2.7086   -0.2297 N   0  0  0  0  0  4  0  0  0  0  0  0
   -1.9502   -2.8630   -1.0237 O   0  0  0  0  0  0  0  0  0  0  0  0
   -0.5235   -3.8299    0.3718 O   0  0  0  0  0  1  0  0  0  0  0  0
   -0.9273   -0.2617    0.0116 C   0  0  0  0  0  0  0  0  0  0  0  0
   -2.2764   -0.1022    0.0907 C   0  0  0  0  0  0  0  0  0  0  0  0
   -3.2258   -1.1510    0.3670 C   0  0  0  0  0  0  0  0  0  0  0  0
   -3.0127   -1.9852    1.2726 O   0  0  0  0  0  0  0  0  0  0  0  0
   -4.3843   -1.2352   -0.3705 O   0  0  0  0  0  0  0  0  0  0  0  0
   -2.7664    1.2237    0.1642 C   0  0  0  0  0  0  0  0  0  0  0  0
   -1.9251    2.3108    0.1660 C   0  0  0  0  0  0  0  0  0  0  0  0
   -0.5918    2.0923    0.0980 C   0  0  0  0  0  0  0  0  0  0  0  0
   -0.0577    0.8304    0.0240 C   0  0  0  0  0  0  0  0  0  0  0  0
    0.0183    3.3589    0.1212 O   0  0  0  0  0  0  0  0  0  0  0  0
   -0.9801    4.2994   -0.2698 C   0  0  0  0  0  0  0  0  0  0  0  0
   -2.1466    3.6708    0.2264 O   0  0  0  0  0  0  0  0  0  0  0  0
  1  2  1  0
  2  3  1  0
  3  4  2  0
  4  5  1  0
  5  6  2  0
  6  7  1  0
  7  8  2  0
  8  9  1  0
  9 10  2  0
 10 11  1  0
 11 12  2  0
 11 13  1  0
 10 14  1  0
 14 15  2  0
 15 16  1  0
 16 17  2  0
 16 18  1  0
 15 19  1  0
 19 20  2  0
 20 21  1  0
 21 22  2  0
 21 23  1  0
 23 24  1  0
 24 25  1  0
  8  3  1  0
 22 14  1  0
 22  7  1  0
 25 20  1  0
M  CHG  2  11   1  13  -1
M  END
>  <zinc_id>  (1) 
ZINC000000000052

>  <smiles>  (1) 
COc1cccc2c1cc([N+](=O)[O-])c1c(C(=O)O)cc3c(c12)OCO3

$$$$
