
     RDKit          3D

 22 23  0  0  0  0  0  0  0  0999 V2000
    3.7376   -1.3001    1.0260 C   0  0  0  0  0  0  0  0  0  0  0  0
    4.7722   -0.7150    0.4339 C   0  0  0  0  0  0  0  0  0  0  0  0
    4.6563    0.4260   -0.5133 C   0  0  0  0  0  0  0  0  0  0  0  0
    3.2383    0.8397   -0.7119 C   0  0  0  0  0  0  0  0  0  0  0  0
    2.6456    0.8142   -1.8291 C   0  0  0  0  0  0  0  0  0  0  0  0
    3.1142    0.4164   -3.1315 C   0  0  0  0  0  0  0  0  0  0  0  0
    1.1331    1.3123   -1.6501 C   0  0  1  0  0  0  0  0  0  0  0  0
    0.7115    0.0526   -0.8234 O   0  0  0  0  0  0  0  0  0  0  0  0
   -0.5939    0.0525   -0.4302 C   0  0  0  0  0  0  0  0  0  0  0  0
   -1.4240    0.9100   -0.6565 O   0  0  0  0  0  0  0  0  0  0  0  0
   -0.9658   -1.2308    0.3947 C   0  0  1  0  0  0  0  0  0  0  0  0
   -2.6220   -1.1366    0.8428 C   0  0  1  0  0  0  0  0  0  0  0  0
   -3.1793    0.2410    0.2481 C   0  0  0  0  0  0  0  0  0  0  0  0
   -4.4388    0.4321    0.5838 C   0  0  0  0  0  0  0  0  0  0  0  0
   -5.2493   -0.5041    1.4086 C   0  0  0  0  0  0  0  0  0  0  0  0
   -5.1521    1.6800    0.1191 C   0  0  0  0  0  0  0  0  0  0  0  0
   -2.1678   -2.0016   -0.5918 C   0  0  0  0  0  0  0  0  0  0  0  0
   -2.4637   -1.4558   -1.8114 C   0  0  0  0  0  0  0  0  0  0  0  0
   -2.0229   -3.4477   -0.1884 C   0  0  0  0  0  0  0  0  0  0  0  0
    1.4378    2.2252   -0.2859 C   0  0  0  0  0  0  0  0  0  0  0  0
    2.3923    1.3280    0.3630 C   0  0  0  0  0  0  0  0  0  0  0  0
    2.4409    1.0618    1.5826 O   0  0  0  0  0  0  0  0  0  0  0  0
  1  2  2  0
  2  3  1  0
  3  4  1  0
  4  5  2  0
  5  6  1  0
  5  7  1  0
  7  8  1  1
  8  9  1  0
  9 10  2  0
 11  9  1  6
 11 12  1  0
 12 13  1  6
 13 14  2  3
 14 15  1  0
 14 16  1  0
 12 17  1  0
 17 18  1  0
 17 19  1  0
  7 20  1  0
 20 21  1  0
 21 22  2  0
 21  4  1  0
 17 11  1  0
M  END
>  <zinc_id>  (1) 
ZINC000000000088

>  <smiles>  (1) 
C=CCC1=C(C)[C@@H](OC(=O)[C@H]2[C@@H](C=C(C)C)C2(C)C)CC1=O

$$$$
