
     RDKit          2D

 23 25  0  0  0  0  0  0  0  0999 V2000
   -5.3641   -2.1503    0.0000 C   0  0  0  0  0  0  0  0  0  0  0  0
   -3.8671   -2.2451    0.0000 O   0  0  0  0  0  0  0  0  0  0  0  0
   -3.0364   -0.9961    0.0000 C   0  0  0  0  0  0  0  0  0  0  0  0
   -3.7028    0.3478    0.0000 C   0  0  0  0  0  0  0  0  0  0  0  0
   -5.1998    0.4426    0.0000 O   0  0  0  0  0  0  0  0  0  0  0  0
   -2.8722    1.5968    0.0000 C   0  0  0  0  0  0  0  0  0  0  0  0
   -1.3752    1.5019    0.0000 C   0  0  0  0  0  0  0  0  0  0  0  0
   -0.7088    0.1581    0.0000 C   0  0  0  0  0  0  0  0  0  0  0  0
   -1.5394   -1.0909    0.0000 C   0  0  0  0  0  0  0  0  0  0  0  0
   -0.8731   -2.4348    0.0000 O   0  0  0  0  0  0  0  0  0  0  0  0
    0.7882    0.0633    0.0000 C   0  0  0  0  0  0  0  0  0  0  0  0
    1.4546   -1.2806    0.0000 O   0  0  0  0  0  0  0  0  0  0  0  0
    2.9516   -1.3754    0.0000 C   0  0  0  0  0  0  0  0  0  0  0  0
    3.6179   -2.7193    0.0000 C   0  0  0  0  0  0  0  0  0  0  0  0
    2.7873   -3.9683    0.0000 O   0  0  0  0  0  0  0  0  0  0  0  0
    3.7822   -0.1264    0.0000 C   0  0  0  0  0  0  0  0  0  0  0  0
    5.2792   -0.2213    0.0000 O   0  0  0  0  0  0  0  0  0  0  0  0
    3.1158    1.2174    0.0000 C   0  0  0  0  0  0  0  0  0  0  0  0
    3.9464    2.4665    0.0000 O   0  0  0  0  0  0  0  0  0  0  0  0
    1.6188    1.3123    0.0000 C   0  0  0  0  0  0  0  0  0  0  0  0
    0.9524    2.6561    0.0000 O   0  0  0  0  0  0  0  0  0  0  0  0
   -0.5446    2.7510    0.0000 C   0  0  0  0  0  0  0  0  0  0  0  0
   -1.2109    4.0948    0.0000 O   0  0  0  0  0  0  0  0  0  0  0  0
  1  2  1  0
  2  3  1  0
  3  4  2  0
  4  5  1  0
  4  6  1  0
  6  7  2  0
  7  8  1  0
  8  9  2  0
  9 10  1  0
  8 11  1  0
 11 12  1  6
 12 13  1  0
 13 14  1  6
 14 15  1  0
 13 16  1  0
 16 17  1  1
 16 18  1  0
 18 19  1  1
 18 20  1  0
 20 21  1  6
 21 22  1  0
 22 23  2  0
  9  3  1  0
 20 11  1  0
 22  7  1  0
M  END
>  <zinc_id>  (1) 
ZINC000000000079

>  <smiles>  (1) 
COc1c(O)cc2c(c1O)[C@H]1O[C@@H](CO)[C@H](O)[C@H](O)[C@H]1OC2=O

$$$$
