
     RDKit          3D

 23 26  0  0  0  0  0  0  0  0999 V2000
    0.1810   -0.2118   -1.7470 O   0  0  0  0  0  0  0  0  0  0  0  0
   -0.2094   -0.0854   -0.5618 C   0  0  0  0  0  0  0  0  0  0  0  0
    0.7492    0.3492    0.3035 O   0  0  0  0  0  0  0  0  0  0  0  0
    2.0892    0.6534   -0.0279 C   0  0  0  0  0  0  0  0  0  0  0  0
    2.5231   -0.6688   -0.5476 C   0  0  0  0  0  0  0  0  0  0  0  0
    3.7978   -0.8753   -1.0073 N   0  0  0  0  0  0  0  0  0  0  0  0
    4.0349   -0.1410   -2.2302 C   0  0  0  0  0  0  0  0  0  0  0  0
    4.4389    1.2179   -1.6454 C   0  0  0  0  0  0  0  0  0  0  0  0
    5.1901    0.8319   -0.3908 C   0  0  0  0  0  0  0  0  0  0  0  0
    4.8954   -0.6189   -0.1222 C   0  0  0  0  0  0  0  0  0  0  0  0
   -1.5258   -0.3308    0.0287 C   0  0  1  0  0  0  0  0  0  0  0  0
   -2.0431    0.8972    0.6372 C   0  0  0  0  0  0  0  0  0  0  0  0
   -3.3288    1.3750    0.4964 C   0  0  0  0  0  0  0  0  0  0  0  0
   -3.7686    2.5424    1.0956 C   0  0  0  0  0  0  0  0  0  0  0  0
   -2.9146    3.2923    1.8773 C   0  0  0  0  0  0  0  0  0  0  0  0
   -1.6485    2.8622    2.0421 C   0  0  0  0  0  0  0  0  0  0  0  0
   -1.2434    1.6944    1.4304 C   0  0  0  0  0  0  0  0  0  0  0  0
   -2.4652   -1.1054   -0.7206 C   0  0  0  0  0  0  0  0  0  0  0  0
   -1.8475   -2.5889   -0.8424 C   0  0  2  0  0  0  0  0  0  0  0  0
   -2.6485   -3.1894    0.4535 C   0  0  0  0  0  0  0  0  0  0  0  0
   -2.5797   -2.1144    1.3932 C   0  0  0  0  0  0  0  0  0  0  0  0
   -1.1412   -1.3892    1.2008 C   0  0  1  0  0  0  0  0  0  0  0  0
   -0.5352   -2.3966    0.0837 C   0  0  0  0  0  0  0  0  0  0  0  0
  1  2  2  0
  2  3  1  0
  3  4  1  0
  4  5  1  0
  5  6  1  0
  6  7  1  0
  7  8  1  0
  8  9  1  0
  9 10  1  0
 11  2  1  6
 11 12  1  0
 12 13  2  0
 13 14  1  0
 14 15  2  0
 15 16  1  0
 16 17  2  0
 11 18  1  0
 19 18  1  1
 19 20  1  0
 20 21  1  0
 22 21  1  6
 22 23  1  0
 10  6  1  0
 22 11  1  0
 17 12  1  0
 23 19  1  0
M  END
>  <zinc_id>  (1) 
ZINC000000000086

>  <smiles>  (1) 
O=C(OCCN1CCCC1)[C@@]1(c2ccccc2)C[C@@H]2CC[C@H]1C2

$$$$
