
     RDKit          3D

 21 22  0  0  0  0  0  0  0  0999 V2000
    2.3163    2.6404   -0.5029 C   0  0  0  0  0  0  0  0  0  0  0  0
    1.7095    2.4779    0.6701 C   0  0  0  0  0  0  0  0  0  0  0  0
    1.3567    1.1407    1.2851 C   0  0  0  0  0  0  0  0  0  0  0  0
    1.7654    0.1051    0.2057 C   0  0  1  0  0  0  0  0  0  0  0  0
    1.4881   -1.2836    1.0057 C   0  0  0  0  0  0  0  0  0  0  0  0
    1.7630   -2.3170    0.0615 N   0  0  0  0  0  0  0  0  0  0  0  0
    3.1252   -2.8531    0.1806 C   0  0  0  0  0  0  0  0  0  0  0  0
    1.3642   -2.1743   -1.2681 C   0  0  0  0  0  0  0  0  0  0  0  0
    0.9971   -0.8466   -1.8129 C   0  0  0  0  0  0  0  0  0  0  0  0
    0.4744    0.0014   -0.6889 C   0  0  2  0  0  0  0  0  0  0  0  0
   -0.1488    1.1495   -1.0534 O   0  0  0  0  0  0  0  0  0  0  0  0
   -0.9353    2.0194   -0.3412 C   0  0  0  0  0  0  0  0  0  0  0  0
   -1.2154    1.7760    0.8677 O   0  0  0  0  0  0  0  0  0  0  0  0
   -1.4967    3.2701   -0.9269 C   0  0  0  0  0  0  0  0  0  0  0  0
   -2.2987    4.0509    0.0541 C   0  0  0  0  0  0  0  0  0  0  0  0
   -0.5862   -0.7960   -0.0217 C   0  0  0  0  0  0  0  0  0  0  0  0
   -0.7276   -1.1906    1.2455 C   0  0  0  0  0  0  0  0  0  0  0  0
   -1.8296   -1.9214    1.6996 C   0  0  0  0  0  0  0  0  0  0  0  0
   -2.8286   -2.2535    0.7802 C   0  0  0  0  0  0  0  0  0  0  0  0
   -2.7010   -1.8566   -0.5289 C   0  0  0  0  0  0  0  0  0  0  0  0
   -1.5921   -1.1387   -0.9110 C   0  0  0  0  0  0  0  0  0  0  0  0
  1  2  2  0
  2  3  1  0
  4  3  1  1
  4  5  1  0
  5  6  1  0
  6  7  1  0
  6  8  1  0
  8  9  1  0
  9 10  1  0
 10 11  1  6
 11 12  1  0
 12 13  2  0
 12 14  1  0
 14 15  1  0
 10 16  1  0
 16 17  2  0
 17 18  1  0
 18 19  2  0
 19 20  1  0
 20 21  2  0
 10  4  1  0
 21 16  1  0
M  END
>  <zinc_id>  (1) 
ZINC000000000021

>  <smiles>  (1) 
C=CC[C@H]1CN(C)CC[C@@]1(OC(=O)CC)c1ccccc1

$$$$
