
     RDKit          3D

 19 20  0  0  0  0  0  0  0  0999 V2000
   -0.2503    4.5777    1.6255 C   0  0  0  0  0  0  0  0  0  0  0  0
   -0.8368    3.3015    1.2427 N   0  0  0  0  0  0  0  0  0  0  0  0
   -0.4017    2.3416    2.2617 C   0  0  0  0  0  0  0  0  0  0  0  0
   -0.2705    2.9240   -0.0161 C   0  0  0  0  0  0  0  0  0  0  0  0
   -0.8031    1.6076   -0.5236 C   0  0  0  0  0  0  0  0  0  0  0  0
   -0.3684    0.5771    0.6651 C   0  0  1  0  0  0  0  0  0  0  0  0
   -0.9592   -0.7385    0.0489 C   0  0  0  0  0  0  0  0  0  0  0  0
   -1.3895   -0.8306   -1.2225 C   0  0  0  0  0  0  0  0  0  0  0  0
   -1.9136   -1.9821   -1.7863 C   0  0  0  0  0  0  0  0  0  0  0  0
   -2.0006   -3.1028   -0.9988 C   0  0  0  0  0  0  0  0  0  0  0  0
   -2.7215   -4.7510   -1.7129 Br  0  0  0  0  0  0  0  0  0  0  0  0
   -1.5710   -3.0501    0.3079 C   0  0  0  0  0  0  0  0  0  0  0  0
   -1.0444   -1.8598    0.8424 C   0  0  0  0  0  0  0  0  0  0  0  0
    1.1291    0.3724    0.2103 C   0  0  0  0  0  0  0  0  0  0  0  0
    1.9846   -0.1489    1.1348 C   0  0  0  0  0  0  0  0  0  0  0  0
    3.3139   -0.3582    0.7786 C   0  0  0  0  0  0  0  0  0  0  0  0
    3.7463   -0.0391   -0.4928 C   0  0  0  0  0  0  0  0  0  0  0  0
    2.8278    0.4802   -1.3649 C   0  0  0  0  0  0  0  0  0  0  0  0
    1.5288    0.6791   -1.0000 N   0  0  0  0  0  0  0  0  0  0  0  0
  1  2  1  0
  2  3  1  0
  2  4  1  0
  4  5  1  0
  6  5  1  6
  6  7  1  0
  7  8  2  0
  8  9  1  0
  9 10  2  0
 10 11  1  0
 10 12  1  0
 12 13  2  0
  6 14  1  0
 14 15  2  0
 15 16  1  0
 16 17  2  0
 17 18  1  0
 18 19  2  0
 13  7  1  0
 19 14  1  0
M  END
>  <zinc_id>  (1) 
ZINC000000000096

>  <smiles>  (1) 
CN(C)CC[C@@H](c1ccc(Br)cc1)c1ccccn1

$$$$
