
     RDKit          3D

 13 13  0  0  0  0  0  0  0  0999 V2000
    3.3244   -1.5650   -0.5968 C   0  0  0  0  0  0  0  0  0  0  0  0
    2.2257   -0.7078   -0.1269 C   0  0  0  0  0  0  0  0  0  0  0  0
    2.2097   -0.3426    1.0777 O   0  0  0  0  0  0  0  0  0  0  0  0
    1.1803   -0.2587   -0.9244 O   0  0  0  0  0  0  0  0  0  0  0  0
    0.1602    0.5456   -0.4594 C   0  0  0  0  0  0  0  0  0  0  0  0
    0.2793    1.9144   -0.5099 C   0  0  0  0  0  0  0  0  0  0  0  0
   -0.6969    2.7720   -0.0647 C   0  0  0  0  0  0  0  0  0  0  0  0
   -1.8488    2.2455    0.4566 C   0  0  0  0  0  0  0  0  0  0  0  0
   -1.9996    0.8846    0.5215 C   0  0  0  0  0  0  0  0  0  0  0  0
   -1.0073    0.0339    0.0690 C   0  0  0  0  0  0  0  0  0  0  0  0
   -1.1836   -1.4196    0.1452 C   0  0  0  0  0  0  0  0  0  0  0  0
   -0.2832   -2.1847   -0.2654 O   0  0  0  0  0  0  0  0  0  0  0  0
   -2.3601   -1.9175    0.6777 O   0  0  0  0  0  0  0  0  0  0  0  0
  1  2  1  0
  2  3  2  0
  2  4  1  0
  4  5  1  0
  5  6  2  0
  6  7  1  0
  7  8  2  0
  8  9  1  0
  9 10  2  0
 10 11  1  0
 11 12  2  0
 11 13  1  0
 10  5  1  0
M  END
>  <zinc_id>  (1) 
ZINC000000000053

>  <smiles>  (1) 
CC(=O)Oc1ccccc1C(=O)O

$$$$
