
     RDKit          3D

 21 22  0  0  0  0  0  0  0  0999 V2000
    2.4599    1.6869    1.0261 C   0  0  0  0  0  0  0  0  0  0  0  0
    3.6554    1.1010    0.3182 C   0  0  0  0  0  0  0  0  0  0  0  0
    4.8900    1.1950    1.2191 C   0  0  0  0  0  0  0  0  0  0  0  0
    3.9684    1.9377   -0.9137 C   0  0  0  0  0  0  0  0  0  0  0  0
    3.5078   -0.2737   -0.0370 N   0  0  0  0  0  0  0  0  0  0  0  0
    2.4014   -0.4551   -0.9911 C   0  0  0  0  0  0  0  0  0  0  0  0
    2.4331   -2.0857   -1.2495 C   0  0  1  0  0  0  0  0  0  0  0  0
    2.1760   -2.4371    0.2157 O   0  0  0  0  0  0  0  0  0  0  0  0
    0.8458   -2.2011   -1.6835 C   0  0  0  0  0  0  0  0  0  0  0  0
    0.2098   -1.2778   -0.8405 O   0  0  0  0  0  0  0  0  0  0  0  0
   -1.1493   -1.0258   -0.8551 C   0  0  0  0  0  0  0  0  0  0  0  0
   -1.9292   -1.7184   -1.7535 C   0  0  0  0  0  0  0  0  0  0  0  0
   -3.3015   -1.4662   -1.7721 C   0  0  0  0  0  0  0  0  0  0  0  0
   -3.8077   -0.5416   -0.8952 C   0  0  0  0  0  0  0  0  0  0  0  0
   -3.0262    0.1651    0.0189 C   0  0  0  0  0  0  0  0  0  0  0  0
   -1.6761   -0.0906    0.0287 C   0  0  0  0  0  0  0  0  0  0  0  0
   -0.7619    0.6140    0.9588 C   0  0  0  0  0  0  0  0  0  0  0  0
   -1.4620    1.1018    2.1750 C   0  0  0  0  0  0  0  0  0  0  0  0
   -2.7524    1.7749    1.8180 C   0  0  0  0  0  0  0  0  0  0  0  0
   -3.0313    2.8857    2.3036 O   0  0  0  0  0  0  0  0  0  0  0  0
   -3.6499    1.1110    0.9089 N   0  0  0  0  0  0  0  0  0  0  0  0
  1  2  1  0
  2  3  1  0
  2  4  1  0
  2  5  1  0
  5  6  1  0
  6  7  1  0
  7  8  1  1
  7  9  1  0
  9 10  1  0
 10 11  1  0
 11 12  2  0
 12 13  1  0
 13 14  2  0
 14 15  1  0
 15 16  2  0
 16 17  1  0
 17 18  1  0
 18 19  1  0
 19 20  2  0
 19 21  1  0
 16 11  1  0
 21 15  1  0
M  END
>  <zinc_id>  (1) 
ZINC000000000128

>  <smiles>  (1) 
CC(C)(C)NC[C@@H](O)COc1cccc2c1CCC(=O)N2

$$$$
