
     RDKit          3D

 24 28  0  0  0  0  0  0  0  0999 V2000
    5.7457   -0.4608    0.6905 C   0  0  0  0  0  0  0  0  0  0  0  0
    4.4890    0.1536    0.5916 O   0  0  0  0  0  0  0  0  0  0  0  0
    3.3186   -0.5619    0.4133 C   0  0  0  0  0  0  0  0  0  0  0  0
    3.2383   -1.9071    0.3144 C   0  0  0  0  0  0  0  0  0  0  0  0
    2.0322   -2.5306    0.1358 C   0  0  0  0  0  0  0  0  0  0  0  0
    0.8338   -1.8029    0.0477 C   0  0  0  0  0  0  0  0  0  0  0  0
    0.9293   -0.4174    0.1561 C   0  0  0  0  0  0  0  0  0  0  0  0
    2.1335    0.2057    0.3327 C   0  0  0  0  0  0  0  0  0  0  0  0
    2.2499    1.5678    0.4398 O   0  0  0  0  0  0  0  0  0  0  0  0
   -0.3486    0.3006    0.2394 C   0  0  0  0  0  0  0  0  0  0  0  0
   -0.3175    1.6812    0.1600 C   0  0  0  0  0  0  0  0  0  0  0  0
   -1.5592    2.3339    0.0737 C   0  0  0  0  0  0  0  0  0  0  0  0
   -2.7537    1.6600    0.0662 C   0  0  0  0  0  0  0  0  0  0  0  0
   -2.7182    0.2587    0.1515 C   0  0  0  0  0  0  0  0  0  0  0  0
   -1.5163   -0.3889    0.2383 C   0  0  0  0  0  0  0  0  0  0  0  0
   -1.6551   -1.9179    0.4956 C   0  0  2  0  0  0  0  0  0  0  0  0
   -0.4073   -2.4986   -0.2851 C   0  0  0  0  0  0  0  0  0  0  0  0
   -2.6856   -2.2239   -0.7088 N   0  0  0  0  0  0  0  0  0  0  0  0
   -2.2271   -1.4795   -1.8109 C   0  0  0  0  0  0  0  0  0  0  0  0
   -3.9723   -1.8507   -0.1857 C   0  0  0  0  0  0  0  0  0  0  0  0
   -4.0491   -0.3839    0.1470 C   0  0  0  0  0  0  0  0  0  0  0  0
   -1.3281    3.7088    0.0034 O   0  0  0  0  0  0  0  0  0  0  0  0
   -0.0175    3.8745    0.5675 C   0  0  0  0  0  0  0  0  0  0  0  0
    0.5851    2.6793    0.1347 O   0  0  0  0  0  0  0  0  0  0  0  0
  1  2  1  0
  2  3  1  0
  3  4  2  0
  4  5  1  0
  5  6  2  0
  6  7  1  0
  7  8  2  0
  8  9  1  0
  7 10  1  0
 10 11  2  0
 11 12  1  0
 12 13  2  0
 13 14  1  0
 14 15  2  0
 15 16  1  0
 16 17  1  6
 16 18  1  0
 18 19  1  0
 18 20  1  0
 20 21  1  0
 12 22  1  0
 22 23  1  0
 23 24  1  0
  8  3  1  0
 15 10  1  0
 17  6  1  0
 24 11  1  0
 21 14  1  0
M  END
>  <zinc_id>  (1) 
ZINC000000000103

>  <smiles>  (1) 
COc1ccc2c(c1O)-c1c3c(cc4c1[C@H](C2)N(C)CC4)OCO3

$$$$
