
     RDKit          3D

 17 19  0  0  0  0  0  0  0  0999 V2000
    0.7884    1.1491   -1.5126 O   0  0  0  0  0  0  0  0  0  0  0  0
    0.8597    0.6300   -0.3808 C   0  0  0  0  0  0  0  0  0  0  0  0
   -0.2146    0.4750    0.4764 O   0  0  0  0  0  0  0  0  0  0  0  0
   -1.4941    1.0253   -0.1529 C   0  0  2  0  0  0  0  0  0  0  0  0
   -2.4258    0.6480    1.1359 C   0  0  0  0  0  0  0  0  0  0  0  0
   -3.6766    0.1685    0.5744 N   0  0  0  0  0  0  0  0  0  0  0  0
   -3.5195   -1.2776    0.4087 C   0  0  0  0  0  0  0  0  0  0  0  0
   -2.0591   -1.4453   -0.0455 C   0  0  0  0  0  0  0  0  0  0  0  0
   -1.7935   -0.3454   -0.9852 C   0  0  0  0  0  0  0  0  0  0  0  0
   -3.0650    0.0057   -1.7212 C   0  0  0  0  0  0  0  0  0  0  0  0
   -3.9462    0.7491   -0.7288 C   0  0  0  0  0  0  0  0  0  0  0  0
    2.1600    0.1556    0.0683 C   0  0  0  0  0  0  0  0  0  0  0  0
    2.3377   -0.4326    1.3051 C   0  0  0  0  0  0  0  0  0  0  0  0
    3.5781   -0.8707    1.7007 C   0  0  0  0  0  0  0  0  0  0  0  0
    4.6969   -0.7482    0.8953 C   0  0  0  0  0  0  0  0  0  0  0  0
    4.5085   -0.1604   -0.3353 C   0  0  0  0  0  0  0  0  0  0  0  0
    3.2651    0.2738   -0.7211 C   0  0  0  0  0  0  0  0  0  0  0  0
  1  2  2  0
  2  3  1  0
  4  3  1  1
  4  5  1  0
  5  6  1  0
  6  7  1  0
  7  8  1  0
  8  9  1  0
  9 10  1  0
 10 11  1  0
  2 12  1  0
 12 13  2  0
 13 14  1  0
 14 15  2  0
 15 16  1  0
 16 17  2  0
  9  4  1  0
 17 12  1  0
 11  6  1  0
M  END
>  <zinc_id>  (1) 
ZINC000000000075

>  <smiles>  (1) 
O=C(O[C@@H]1CN2CCC1CC2)c1ccccc1

$$$$
