
     RDKit          2D

 24 29  0  0  0  0  0  0  0  0999 V2000
   -6.0440    1.6254    0.0000 C   0  0  0  0  0  0  0  0  0  0  0  0
   -5.2930    0.3269    0.0000 C   0  0  0  0  0  0  0  0  0  0  0  0
   -3.7930    0.3282    0.0000 C   0  0  0  0  0  0  0  0  0  0  0  0
   -3.0419   -0.9702    0.0000 C   0  0  0  0  0  0  0  0  0  0  0  0
   -3.7908   -2.2699    0.0000 O   0  0  0  0  0  0  0  0  0  0  0  0
   -1.5419   -0.9690    0.0000 N   0  0  0  0  0  0  0  0  0  0  0  0
   -0.7908   -2.2674    0.0000 C   0  0  0  0  0  0  0  0  0  0  0  0
    0.7092   -2.2661    0.0000 C   0  0  0  0  0  0  0  0  0  0  0  0
    1.4581   -0.9665    0.0000 C   0  0  0  0  0  0  0  0  0  0  0  0
    2.9251   -0.6534    0.0000 C   0  0  0  0  0  0  0  0  0  0  0  0
    4.1393   -1.5341    0.0000 C   0  0  0  0  0  0  0  0  0  0  0  0
    5.5092   -0.9228    0.0000 C   0  0  0  0  0  0  0  0  0  0  0  0
    5.6647    0.5691    0.0000 C   0  0  0  0  0  0  0  0  0  0  0  0
    4.4504    1.4498    0.0000 C   0  0  0  0  0  0  0  0  0  0  0  0
    3.0806    0.8385    0.0000 C   0  0  0  0  0  0  0  0  0  0  0  0
    1.7098    1.4475    0.0000 N   0  0  0  0  0  0  0  0  0  0  0  0
    1.3967    2.9144    0.0000 C   0  0  0  0  0  0  0  0  0  0  0  0
    0.7070    0.3319    0.0000 C   0  0  0  0  0  0  0  0  0  0  0  0
   -0.7930    0.3307    0.0000 C   0  0  0  0  0  0  0  0  0  0  0  0
   -1.5440    1.6291    0.0000 C   0  0  0  0  0  0  0  0  0  0  0  0
   -3.0440    1.6278    0.0000 C   0  0  0  0  0  0  0  0  0  0  0  0
   -2.0905   -1.5185    0.0000 C   0  0  0  0  0  0  0  0  0  0  0  0
    0.1235   -0.2818    0.0000 C   0  0  0  0  0  0  0  0  0  0  0  0
   -0.1071    1.2004    0.0000 O   0  0  0  0  0  0  0  0  0  0  0  0
  1  2  1  0
  3  2  1  6
  3  4  1  0
  4  5  1  1
  4  6  1  0
  6  7  1  0
  7  8  1  1
  8  9  1  0
  9 10  1  1
 10 11  2  0
 11 12  1  0
 12 13  2  0
 13 14  1  0
 14 15  2  0
 15 16  1  0
 16 17  1  0
 18 16  1  6
 18 19  1  0
 19 20  1  1
 21 20  1  6
 21 22  1  0
 22 23  1  0
 23 24  1  1
 21  3  1  0
 19  6  1  0
 22  7  1  6
 18  9  1  0
 23  9  1  0
 15 10  1  0
M  END
>  <zinc_id>  (1) 
ZINC000000000014

>  <smiles>  (1) 
CC[C@H]1[C@H](O)N2[C@H]3C[C@@]45c6ccccc6N(C)[C@H]4[C@@H]2C[C@@H]1[C@@H]3[C@H]5O

$$$$
