
     RDKit          3D

 21 22  0  0  0  0  0  0  0  0999 V2000
    3.5593   -1.7854    1.0718 C   0  0  0  0  0  0  0  0  0  0  0  0
    4.0737   -0.5254    0.7334 N   0  0  0  0  0  0  0  0  0  0  0  0
    5.2153   -0.5418   -0.1534 C   0  0  0  0  0  0  0  0  0  0  0  0
    3.2388    0.5997    0.6159 C   0  0  0  0  0  0  0  0  0  0  0  0
    2.2626    0.6635   -0.4741 C   0  0  0  0  0  0  0  0  0  0  0  0
    1.2706   -0.2359   -0.5776 O   0  0  0  0  0  0  0  0  0  0  0  0
    0.2547   -0.2193    0.3310 C   0  0  2  0  0  0  0  0  0  0  0  0
    0.7438   -0.3676    1.7281 C   0  0  0  0  0  0  0  0  0  0  0  0
   -0.6581   -1.3991    0.0835 C   0  0  0  0  0  0  0  0  0  0  0  0
   -1.7014   -1.6724    0.9083 C   0  0  0  0  0  0  0  0  0  0  0  0
   -2.5278   -2.7584    0.6707 C   0  0  0  0  0  0  0  0  0  0  0  0
   -2.2926   -3.5743   -0.4151 C   0  0  0  0  0  0  0  0  0  0  0  0
   -1.2324   -3.3127   -1.2705 C   0  0  0  0  0  0  0  0  0  0  0  0
   -0.4273   -2.2173   -1.0008 C   0  0  0  0  0  0  0  0  0  0  0  0
   -0.6217    0.9897    0.1739 C   0  0  0  0  0  0  0  0  0  0  0  0
   -1.6533    1.2350    1.0420 C   0  0  0  0  0  0  0  0  0  0  0  0
   -2.4548    2.3556    0.8892 C   0  0  0  0  0  0  0  0  0  0  0  0
   -2.2260    3.2398   -0.1408 C   0  0  0  0  0  0  0  0  0  0  0  0
   -3.2379    4.6527   -0.3376 Cl  0  0  0  0  0  0  0  0  0  0  0  0
   -1.1911    3.0043   -1.0230 C   0  0  0  0  0  0  0  0  0  0  0  0
   -0.3944    1.8693   -0.8510 C   0  0  0  0  0  0  0  0  0  0  0  0
  1  2  1  0
  2  3  1  0
  2  4  1  0
  4  5  1  0
  5  6  1  0
  6  7  1  0
  7  8  1  1
  7  9  1  0
  9 10  2  0
 10 11  1  0
 11 12  2  0
 12 13  1  0
 13 14  2  0
  7 15  1  0
 15 16  2  0
 16 17  1  0
 17 18  2  0
 18 19  1  0
 18 20  1  0
 20 21  2  0
 14  9  1  0
 21 15  1  0
M  END
>  <zinc_id>  (1) 
ZINC000000000137

>  <smiles>  (1) 
CN(C)CCO[C@](C)(c1ccccc1)c1ccc(Cl)cc1

$$$$
