
     RDKit          3D

 20 22  0  0  0  0  0  0  0  0999 V2000
   -3.7862   -0.0690    2.2631 O   0  0  0  0  0  0  0  0  0  0  0  0
   -3.6026   -0.4308    1.1207 C   0  0  0  0  0  0  0  0  0  0  0  0
   -3.3841   -1.7625    0.8313 O   0  0  0  0  0  0  0  0  0  0  0  0
   -3.5948    0.5557   -0.1179 C   0  0  1  0  0  0  0  0  0  0  0  0
   -3.1808    1.8915    0.7106 C   0  0  0  0  0  0  0  0  0  0  0  0
   -2.3944    2.5193   -0.4612 C   0  0  0  0  0  0  0  0  0  0  0  0
   -1.4791    1.4041   -0.8178 C   0  0  0  0  0  0  0  0  0  0  0  0
   -0.1834    1.3677   -1.2756 C   0  0  0  0  0  0  0  0  0  0  0  0
    0.4481    0.1651   -1.5116 C   0  0  0  0  0  0  0  0  0  0  0  0
    1.7417    0.2130   -1.9677 O   0  0  0  0  0  0  0  0  0  0  0  0
    2.4128   -1.0248   -2.2181 C   0  0  0  0  0  0  0  0  0  0  0  0
    2.4113   -1.7378   -0.8611 C   0  0  0  0  0  0  0  0  0  0  0  0
    3.1285   -0.8975    0.1058 N   0  0  0  0  0  0  0  0  0  0  0  0
    2.5720    0.0486    0.8811 C   0  0  0  0  0  0  0  0  0  0  0  0
    3.5968    0.5867    1.6303 C   0  0  0  0  0  0  0  0  0  0  0  0
    4.7151   -0.0647    1.2654 N   0  0  0  0  0  0  0  0  0  0  0  0
    4.4514   -0.9871    0.3242 C   0  0  0  0  0  0  0  0  0  0  0  0
   -0.2220   -1.0100   -1.2878 C   0  0  0  0  0  0  0  0  0  0  0  0
   -1.5308   -0.9914   -0.8259 C   0  0  0  0  0  0  0  0  0  0  0  0
   -2.1197    0.2240   -0.6053 C   0  0  0  0  0  0  0  0  0  0  0  0
  1  2  2  0
  2  3  1  0
  4  2  1  1
  4  5  1  0
  5  6  1  0
  6  7  1  0
  7  8  2  0
  8  9  1  0
  9 10  1  0
 10 11  1  0
 11 12  1  0
 12 13  1  0
 13 14  1  0
 14 15  2  0
 15 16  1  0
 16 17  2  0
  9 18  2  0
 18 19  1  0
 19 20  2  0
 20  4  1  0
 20  7  1  0
 17 13  1  0
M  END
>  <zinc_id>  (1) 
ZINC000000000115

>  <smiles>  (1) 
O=C(O)[C@H]1CCc2cc(OCCn3ccnc3)ccc21

$$$$
