
     RDKit          3D

 23 25  0  0  0  0  0  0  0  0999 V2000
   -1.1325   -0.5160    1.7518 C   0  0  0  0  0  0  0  0  0  0  0  0
   -0.8544   -1.3441    0.5198 C   0  0  1  0  0  0  0  0  0  0  0  0
    0.5193   -1.0302    0.0391 C   0  0  0  0  0  0  0  0  0  0  0  0
    1.2717   -0.0390    0.5390 N   0  0  0  0  0  0  0  0  0  0  0  0
    2.4355   -0.0162   -0.0971 C   0  0  0  0  0  0  0  0  0  0  0  0
    3.5677    0.8859    0.0870 C   0  0  0  0  0  0  0  0  0  0  0  0
    3.6100    1.8496    1.0783 C   0  0  0  0  0  0  0  0  0  0  0  0
    4.6795    2.7158    1.2092 C   0  0  0  0  0  0  0  0  0  0  0  0
    5.7586    2.6657    0.3578 C   0  0  0  0  0  0  0  0  0  0  0  0
    5.7286    1.6797   -0.6644 C   0  0  0  0  0  0  0  0  0  0  0  0
    4.6513    0.8451   -0.7534 C   0  0  0  0  0  0  0  0  0  0  0  0
    2.3787   -1.0255   -1.0048 N   0  0  0  0  0  0  0  0  0  0  0  0
    1.2192   -1.6110   -0.8971 O   0  0  0  0  0  0  0  0  0  0  0  0
   -1.0598   -2.8182    0.7883 C   0  0  0  0  0  0  0  0  0  0  0  0
   -2.1646   -3.3885   -0.0524 C   0  0  0  0  0  0  0  0  0  0  0  0
   -3.3952   -2.5589   -0.1000 C   0  0  0  0  0  0  0  0  0  0  0  0
   -3.1422   -1.1571   -0.3306 N   0  0  0  0  0  0  0  0  0  0  0  0
   -3.5329   -0.3062    0.7846 C   0  0  0  0  0  0  0  0  0  0  0  0
   -3.1944    1.1082    0.4920 C   0  0  0  0  0  0  0  0  0  0  0  0
   -3.8468    1.6977   -0.7155 C   0  0  0  0  0  0  0  0  0  0  0  0
   -5.2978    1.6397   -0.5680 C   0  0  0  0  0  0  0  0  0  0  0  0
   -6.4422    1.6012   -0.4301 N   0  0  0  0  0  0  0  0  0  0  0  0
   -1.7571   -0.8777   -0.6591 C   0  0  0  0  0  0  0  0  0  0  0  0
  2  1  1  1
  2  3  1  0
  3  4  2  0
  4  5  1  0
  5  6  1  0
  6  7  2  0
  7  8  1  0
  8  9  2  0
  9 10  1  0
 10 11  2  0
  5 12  2  0
 12 13  1  0
  2 14  1  0
 14 15  1  0
 15 16  1  0
 16 17  1  0
 17 18  1  0
 18 19  1  0
 19 20  1  0
 20 21  1  0
 21 22  3  0
 17 23  1  0
 23  2  1  0
 13  3  1  0
 11  6  1  0
M  END
>  <zinc_id>  (1) 
ZINC000000000120

>  <smiles>  (1) 
C[C@@]1(c2nc(-c3ccccc3)no2)CCCN(CCCC#N)C1

$$$$
