
     RDKit          3D

 14 14  0  0  0  0  0  0  0  0999 V2000
   -3.4962    1.3954    0.5724 N   0  0  0  0  0  0  0  0  0  0  0  0
   -2.8094    0.1598    0.3785 C   0  0  0  0  0  0  0  0  0  0  0  0
   -3.3204   -0.8949    0.8074 O   0  0  0  0  0  0  0  0  0  0  0  0
   -1.5499    0.1542   -0.3031 N   0  0  0  0  0  0  0  0  0  0  0  0
   -0.8829   -1.0308   -0.4936 C   0  0  0  0  0  0  0  0  0  0  0  0
   -1.3646   -2.1195   -0.0757 O   0  0  0  0  0  0  0  0  0  0  0  0
    0.4867   -1.1564   -1.2170 C   0  0  1  0  0  0  0  0  0  0  0  0
    0.1414    0.1201   -2.5439 Cl  0  0  0  0  0  0  0  0  0  0  0  0
    1.3508   -0.2473   -0.3142 C   0  0  0  0  0  0  0  0  0  0  0  0
    1.1047   -0.1775    1.0332 C   0  0  0  0  0  0  0  0  0  0  0  0
    1.9001    0.6465    1.8432 C   0  0  0  0  0  0  0  0  0  0  0  0
    2.9166    1.3705    1.2588 C   0  0  0  0  0  0  0  0  0  0  0  0
    3.1668    1.3031   -0.0934 C   0  0  0  0  0  0  0  0  0  0  0  0
    2.3563    0.4770   -0.8525 C   0  0  0  0  0  0  0  0  0  0  0  0
  1  2  1  0
  2  3  2  0
  2  4  1  0
  4  5  1  0
  5  6  2  0
  5  7  1  0
  7  8  1  6
  7  9  1  0
  9 10  2  0
 10 11  1  0
 11 12  2  0
 12 13  1  0
 13 14  2  0
 14  9  1  0
M  END
>  <zinc_id>  (1) 
ZINC000000000134

>  <smiles>  (1) 
NC(=O)NC(=O)[C@@H](Cl)c1ccccc1

$$$$
