
     RDKit          3D

 19 20  0  0  0  0  0  0  0  0999 V2000
   -3.9603    2.3006   -1.2815 C   0  0  0  0  0  0  0  0  0  0  0  0
   -3.8427    1.8941    0.1683 C   0  0  0  0  0  0  0  0  0  0  0  0
   -3.4273    0.4854    0.3497 C   0  0  0  0  0  0  0  0  0  0  0  0
   -4.3683   -0.4541    0.7133 C   0  0  0  0  0  0  0  0  0  0  0  0
   -4.0253   -1.8004    0.8964 C   0  0  0  0  0  0  0  0  0  0  0  0
   -2.7180   -2.2047    0.7109 C   0  0  0  0  0  0  0  0  0  0  0  0
   -1.7857   -1.2739    0.3510 C   0  0  0  0  0  0  0  0  0  0  0  0
   -0.4332   -1.3170    0.0889 C   0  0  0  0  0  0  0  0  0  0  0  0
   -0.0215   -0.1030   -0.2201 C   0  0  0  0  0  0  0  0  0  0  0  0
    1.4674    0.3992   -0.6116 C   0  0  2  0  0  0  0  0  0  0  0  0
    1.7748   -0.8023   -1.5728 O   0  0  0  0  0  0  0  0  0  0  0  0
    2.1735   -0.3563    0.7035 C   0  0  0  0  0  0  0  0  0  0  0  0
    3.5066   -0.6023    0.3671 N   0  0  0  0  0  0  0  0  0  0  0  0
    4.4158    0.4627    0.2053 C   0  0  0  0  0  0  0  0  0  0  0  0
    4.5427    1.1951    1.5395 C   0  0  0  0  0  0  0  0  0  0  0  0
    5.8152   -0.0610   -0.1174 C   0  0  0  0  0  0  0  0  0  0  0  0
    4.0457    1.4627   -0.8640 C   0  0  0  0  0  0  0  0  0  0  0  0
   -1.0280    0.7227   -0.1734 O   0  0  0  0  0  0  0  0  0  0  0  0
   -2.1314    0.0526    0.1721 C   0  0  0  0  0  0  0  0  0  0  0  0
  1  2  1  0
  2  3  1  0
  3  4  2  0
  4  5  1  0
  5  6  2  0
  6  7  1  0
  7  8  1  0
  8  9  2  0
  9 10  1  0
 10 11  1  6
 10 12  1  0
 12 13  1  0
 13 14  1  0
 14 15  1  0
 14 16  1  0
 14 17  1  0
  9 18  1  0
 18 19  1  0
 19  3  1  0
 19  7  2  0
M  END
>  <zinc_id>  (1) 
ZINC000000000102

>  <smiles>  (1) 
CCc1cccc2cc([C@H](O)CNC(C)(C)C)oc12

$$$$
