
     RDKit          3D

 16 16  0  0  0  0  0  0  0  0999 V2000
    3.8884    1.2504    0.0103 C   0  0  0  0  0  0  0  0  0  0  0  0
    3.8055   -0.0738    0.2478 C   0  0  0  0  0  0  0  0  0  0  0  0
    4.1719   -0.5692    1.6188 C   0  0  0  0  0  0  0  0  0  0  0  0
    3.3717   -1.0296   -0.7875 C   0  0  0  0  0  0  0  0  0  0  0  0
    2.2078   -1.7772   -0.4600 N   0  0  0  0  0  0  0  0  0  0  0  0
    0.9302   -1.1971   -0.1781 C   0  0  0  0  0  0  0  0  0  0  0  0
   -0.1423   -2.0003    0.1300 C   0  0  0  0  0  0  0  0  0  0  0  0
   -1.4078   -1.4486    0.4104 C   0  0  0  0  0  0  0  0  0  0  0  0
   -1.5677   -0.0892    0.3744 C   0  0  0  0  0  0  0  0  0  0  0  0
   -2.9957    0.5179    0.6964 C   0  0  2  0  0  0  0  0  0  0  0  0
   -3.8258   -0.5399   -0.2677 C   0  0  0  0  0  0  0  0  0  0  0  0
   -2.9525    1.7046   -0.3948 C   0  0  0  0  0  0  0  0  0  0  0  0
   -3.8025    1.7906   -1.2557 O   0  0  0  0  0  0  0  0  0  0  0  0
   -1.8714    2.5735   -0.2321 O   0  0  0  0  0  0  0  0  0  0  0  0
   -0.5345    0.7257    0.0753 C   0  0  0  0  0  0  0  0  0  0  0  0
    0.7247    0.1623   -0.2030 C   0  0  0  0  0  0  0  0  0  0  0  0
  1  2  2  0
  2  3  1  0
  2  4  1  0
  4  5  1  0
  5  6  1  0
  6  7  2  0
  7  8  1  0
  8  9  2  0
  9 10  1  0
 10 11  1  6
 10 12  1  0
 12 13  2  0
 12 14  1  0
  9 15  1  0
 15 16  2  0
 16  6  1  0
M  END
>  <zinc_id>  (1) 
ZINC000000000022

>  <smiles>  (1) 
C=C(C)CNc1ccc([C@H](C)C(=O)O)cc1

$$$$
