
     RDKit          3D

 31 34  0  0  0  0  0  0  0  0999 V2000
   -7.5367   -3.1035   -0.0168 C   0  0  0  0  0  0  0  0  0  0  0  0
   -6.8207   -2.4290   -1.0174 O   0  0  0  0  0  0  0  0  0  0  0  0
   -5.9216   -1.4232   -0.6474 C   0  0  0  0  0  0  0  0  0  0  0  0
   -5.7319   -1.0912    0.6564 C   0  0  0  0  0  0  0  0  0  0  0  0
   -4.8329   -0.0908    0.9728 C   0  0  0  0  0  0  0  0  0  0  0  0
   -4.1544    0.5422   -0.0382 C   0  0  0  0  0  0  0  0  0  0  0  0
   -3.2292    1.5713    0.2814 N   0  0  0  0  0  0  0  0  0  0  0  0
   -3.4171    2.8526    0.0124 N   0  0  0  0  0  0  0  0  0  0  0  0
   -2.3691    3.5193    0.4427 N   0  0  0  0  0  0  0  0  0  0  0  0
   -1.4728    2.6621    1.0061 C   0  0  0  0  0  0  0  0  0  0  0  0
   -2.0497    1.4259    0.8883 C   0  0  0  0  0  0  0  0  0  0  0  0
   -1.4514    0.1631    1.3591 C   0  0  0  0  0  0  0  0  0  0  0  0
   -0.6673   -0.3956    0.3052 N   0  0  0  0  0  0  0  0  0  0  0  0
   -0.0315   -1.6441    0.6626 C   0  0  0  0  0  0  0  0  0  0  0  0
    1.1273   -1.9827   -0.2273 C   0  0  0  0  0  0  0  0  0  0  0  0
    2.1289   -0.9417   -0.1289 N   0  0  0  0  0  0  0  0  0  0  0  0
    3.4897   -1.2484   -0.2337 C   0  0  0  0  0  0  0  0  0  0  0  0
    3.8423   -2.4392   -0.4149 O   0  0  0  0  0  0  0  0  0  0  0  0
    4.5477   -0.2341   -0.1416 C   0  0  0  0  0  0  0  0  0  0  0  0
    5.9140   -0.4317   -0.2315 C   0  0  0  0  0  0  0  0  0  0  0  0
    6.5642    0.7741   -0.0942 C   0  0  0  0  0  0  0  0  0  0  0  0
    8.0132    1.0710   -0.1193 C   0  0  0  0  0  0  0  0  0  0  0  0
    8.6769    0.7076    1.1897 C   0  0  0  0  0  0  0  0  0  0  0  0
    8.6221    0.2270   -1.2329 C   0  0  0  0  0  0  0  0  0  0  0  0
    5.6003    1.6848    0.0761 N   0  0  0  0  0  0  0  0  0  0  0  0
    4.4098    1.0944    0.0488 N   0  0  0  0  0  0  0  0  0  0  0  0
    1.6412    0.4144    0.0813 C   0  0  0  0  0  0  0  0  0  0  0  0
    0.1960    0.5304   -0.3511 C   0  0  0  0  0  0  0  0  0  0  0  0
   -4.3556    0.1946   -1.3767 C   0  0  0  0  0  0  0  0  0  0  0  0
   -5.2541   -0.8064   -1.7035 C   0  0  0  0  0  0  0  0  0  0  0  0
   -5.4776   -1.1732   -2.9915 F   0  0  0  0  0  0  0  0  0  0  0  0
  1  2  1  0
  2  3  1  0
  3  4  2  0
  4  5  1  0
  5  6  2  0
  6  7  1  0
  7  8  1  0
  8  9  2  0
  9 10  1  0
 10 11  2  0
 11 12  1  0
 12 13  1  0
 13 14  1  0
 14 15  1  0
 15 16  1  0
 16 17  1  0
 17 18  2  0
 17 19  1  0
 19 20  1  0
 20 21  2  0
 21 22  1  0
 22 23  1  0
 22 24  1  0
 21 25  1  0
 25 26  1  0
 16 27  1  0
 27 28  1  0
  6 29  1  0
 29 30  2  0
 30 31  1  0
 30  3  1  0
 11  7  1  0
 28 13  1  0
 26 19  2  0
M  END
>  <zinc_id>  (1) 
ZINC000000000057

>  <smiles>  (1) 
COc1ccc(-n2nncc2CN2CCN(C(=O)c3cc(C(C)C)[nH]n3)CC2)cc1F

$$$$
