
     RDKit          3D

 17 17  0  0  0  0  0  0  0  0999 V2000
    1.5777   -2.7351    0.3859 C   0  0  0  0  0  0  0  0  0  0  0  0
    1.9365   -1.9239   -0.8369 C   0  0  0  0  0  0  0  0  0  0  0  0
    1.8137   -0.4320   -0.5672 C   0  0  2  0  0  0  0  0  0  0  0  0
    2.1777    0.3334   -1.8031 C   0  0  0  0  0  0  0  0  0  0  0  0
    2.7774   -0.1088    0.5572 C   0  0  0  0  0  0  0  0  0  0  0  0
    2.6872    1.2821    0.9508 N   0  0  0  0  0  0  0  0  0  0  0  0
    3.6453    1.4795    2.0252 C   0  0  0  0  0  0  0  0  0  0  0  0
    3.0824    2.1010   -0.1996 C   0  0  0  0  0  0  0  0  0  0  0  0
    0.5102   -0.1616   -0.1085 O   0  0  0  0  0  0  0  0  0  0  0  0
   -0.6345   -0.4126   -0.8083 C   0  0  0  0  0  0  0  0  0  0  0  0
   -0.5561   -0.9226   -1.9503 O   0  0  0  0  0  0  0  0  0  0  0  0
   -1.9287   -0.0757   -0.1985 C   0  0  0  0  0  0  0  0  0  0  0  0
   -1.9969    0.4856    1.0600 C   0  0  0  0  0  0  0  0  0  0  0  0
   -3.2236    0.8078    1.6445 C   0  0  0  0  0  0  0  0  0  0  0  0
   -4.4045    0.5732    0.9779 C   0  0  0  0  0  0  0  0  0  0  0  0
   -4.3400    0.0128   -0.2791 C   0  0  0  0  0  0  0  0  0  0  0  0
   -3.1239   -0.3029   -0.8500 C   0  0  0  0  0  0  0  0  0  0  0  0
  1  2  1  0
  2  3  1  0
  3  4  1  6
  3  5  1  0
  5  6  1  0
  6  7  1  0
  6  8  1  0
  3  9  1  0
  9 10  1  0
 10 11  2  0
 10 12  1  0
 12 13  2  0
 13 14  1  0
 14 15  2  0
 15 16  1  0
 16 17  2  0
 17 12  1  0
M  END
>  <zinc_id>  (1) 
ZINC000000000038

>  <smiles>  (1) 
CC[C@](C)(CN(C)C)OC(=O)c1ccccc1

$$$$
