
     RDKit          3D

 17 18  0  0  0  0  0  0  0  0999 V2000
    0.3029    2.0629   -0.8857 C   0  0  0  0  0  0  0  0  0  0  0  0
   -0.8227    1.4928   -0.1849 N   0  0  0  0  0  0  0  0  0  0  0  0
   -2.1488    1.8086   -0.5249 C   0  0  0  0  0  0  0  0  0  0  0  0
   -2.4331    2.5586   -1.5238 O   0  0  0  0  0  0  0  0  0  0  0  0
   -3.3471    1.3165    0.2230 C   0  0  0  0  0  0  0  0  0  0  0  0
   -3.3412   -0.1948    0.3216 C   0  0  0  0  0  0  0  0  0  0  0  0
   -1.6895   -0.8410    0.2500 S   0  0  0  0  0  0  0  0  0  0  0  0
   -1.4945   -2.0245    1.1191 O   0  0  0  0  0  0  0  0  0  0  0  0
   -1.3153   -1.0396   -1.1600 O   0  0  0  0  0  0  0  0  0  0  0  0
   -0.6016    0.5224    0.9618 C   0  0  1  0  0  0  0  0  0  0  0  0
    0.7645   -0.0955    0.5483 C   0  0  0  0  0  0  0  0  0  0  0  0
    1.7024   -0.2155    1.5521 C   0  0  0  0  0  0  0  0  0  0  0  0
    2.9528   -0.7599    1.2635 C   0  0  0  0  0  0  0  0  0  0  0  0
    3.2660   -1.1804   -0.0110 C   0  0  0  0  0  0  0  0  0  0  0  0
    4.8464   -1.8711   -0.3867 Cl  0  0  0  0  0  0  0  0  0  0  0  0
    2.2965   -1.0392   -0.9760 C   0  0  0  0  0  0  0  0  0  0  0  0
    1.0624   -0.5003   -0.6848 C   0  0  0  0  0  0  0  0  0  0  0  0
  1  2  1  0
  2  3  1  0
  3  4  2  0
  3  5  1  0
  5  6  1  0
  6  7  1  0
  7  8  2  0
  7  9  2  0
  7 10  1  0
 10 11  1  6
 11 12  2  0
 12 13  1  0
 13 14  2  0
 14 15  1  0
 14 16  1  0
 16 17  2  0
 10  2  1  0
 17 11  1  0
M  END
>  <zinc_id>  (1) 
ZINC000000000133

>  <smiles>  (1) 
CN1C(=O)CCS(=O)(=O)[C@H]1c1ccc(Cl)cc1

$$$$
