
     RDKit          2D

 18 19  0  0  0  0  0  0  0  0999 V2000
    6.8951   -0.3723    0.0000 C   0  0  0  0  0  0  0  0  0  0  0  0
    5.4434   -0.7499    0.0000 C   0  0  0  0  0  0  0  0  0  0  0  0
    4.3905    0.3184    0.0000 C   0  0  0  0  0  0  0  0  0  0  0  0
    2.9388   -0.0592    0.0000 C   0  0  0  0  0  0  0  0  0  0  0  0
    2.5400   -1.5052    0.0000 O   0  0  0  0  0  0  0  0  0  0  0  0
    1.8859    1.0092    0.0000 O   0  0  0  0  0  0  0  0  0  0  0  0
    0.4343    0.6315    0.0000 C   0  0  0  0  0  0  0  0  0  0  0  0
    0.0355   -0.8145    0.0000 C   0  0  0  0  0  0  0  0  0  0  0  0
   -1.4162   -1.1921    0.0000 N   0  0  0  0  0  0  0  0  0  0  0  0
   -2.1069   -2.5236    0.0000 C   0  0  0  0  0  0  0  0  0  0  0  0
   -3.5867   -2.2781    0.0000 C   0  0  0  0  0  0  0  0  0  0  0  0
   -3.8106   -0.7949    0.0000 C   0  0  0  0  0  0  0  0  0  0  0  0
   -5.1421   -0.1042    0.0000 O   0  0  0  0  0  0  0  0  0  0  0  0
   -2.4691   -0.1237    0.0000 C   0  0  0  0  0  0  0  0  0  0  0  0
   -2.0703    1.3223    0.0000 C   0  0  0  0  0  0  0  0  0  0  0  0
   -3.1232    2.3907    0.0000 O   0  0  0  0  0  0  0  0  0  0  0  0
   -0.6186    1.6999    0.0000 C   0  0  0  0  0  0  0  0  0  0  0  0
   -0.2198    3.1459    0.0000 O   0  0  0  0  0  0  0  0  0  0  0  0
  1  2  1  0
  2  3  1  0
  3  4  1  0
  4  5  2  0
  4  6  1  0
  7  6  1  6
  7  8  1  0
  8  9  1  0
  9 10  1  0
 10 11  1  0
 11 12  1  0
 12 13  1  1
 12 14  1  0
 14 15  1  0
 15 16  1  6
 15 17  1  0
 17 18  1  1
 17  7  1  0
 14  9  1  6
M  END
>  <zinc_id>  (1) 
ZINC000000000129

>  <smiles>  (1) 
CCCC(=O)O[C@@H]1CN2CC[C@@H](O)[C@@H]2[C@H](O)[C@H]1O

$$$$
