
     RDKit          2D

 22 25  0  0  0  0  0  0  0  0999 V2000
    6.1636   -1.0942    0.0000 C   0  0  0  0  0  0  0  0  0  0  0  0
    4.6645   -1.0407    0.0000 C   0  0  0  0  0  0  0  0  0  0  0  0
    3.9613    0.2842    0.0000 O   0  0  0  0  0  0  0  0  0  0  0  0
    2.4623    0.3377    0.0000 C   0  0  0  0  0  0  0  0  0  0  0  0
    1.6664   -0.9337    0.0000 O   0  0  0  0  0  0  0  0  0  0  0  0
    0.1674   -0.8802    0.0000 C   0  0  0  0  0  0  0  0  0  0  0  0
   -1.1900   -1.5187    0.0000 O   0  0  0  0  0  0  0  0  0  0  0  0
   -1.4025   -2.8124    0.0000 C   0  0  0  0  0  0  0  0  0  0  0  0
   -1.4560   -4.3115    0.0000 C   0  0  0  0  0  0  0  0  0  0  0  0
   -2.7299   -2.1138    0.0000 C   0  0  0  0  0  0  0  0  0  0  0  0
   -3.0113   -0.6404    0.0000 C   0  0  0  0  0  0  0  0  0  0  0  0
   -2.0349    0.4982    0.0000 C   0  0  0  0  0  0  0  0  0  0  0  0
   -2.7381    1.8232    0.0000 C   0  0  0  0  0  0  0  0  0  0  0  0
   -4.2371    1.8767    0.0000 C   0  0  0  0  0  0  0  0  0  0  0  0
   -1.9422    3.0946    0.0000 C   0  0  0  0  0  0  0  0  0  0  0  0
   -0.4432    3.0411    0.0000 C   0  0  0  0  0  0  0  0  0  0  0  0
    0.2600    1.7162    0.0000 C   0  0  0  0  0  0  0  0  0  0  0  0
    1.7591    1.6627    0.0000 C   0  0  0  0  0  0  0  0  0  0  0  0
    2.5549    2.9341    0.0000 C   0  0  0  0  0  0  0  0  0  0  0  0
   -0.5358    0.4447    0.0000 C   0  0  0  0  0  0  0  0  0  0  0  0
   -0.9372   -1.0635    0.0000 O   0  0  0  0  0  0  0  0  0  0  0  0
   -1.0012   -1.3042    0.0000 O   0  0  0  0  0  0  0  0  0  0  0  0
  1  2  1  0
  2  3  1  0
  4  3  1  1
  4  5  1  0
  6  5  1  6
  6  7  1  0
  7  8  1  0
  8  9  1  6
  8 10  1  0
 10 11  1  0
 12 11  1  1
 12 13  1  0
 13 14  1  1
 13 15  1  0
 15 16  1  0
 17 16  1  6
 17 18  1  0
 18 19  1  6
 17 20  1  0
 20 21  1  1
 21 22  1  0
 18  4  1  0
 20  6  1  0
 22  8  1  0
 20 12  1  0
M  END
>  <zinc_id>  (1) 
ZINC000000000081

>  <smiles>  (1) 
CCO[C@H]1O[C@@H]2O[C@]3(C)CC[C@H]4[C@@H](C)CC[C@H]([C@@H]1C)[C@@]42OO3

$$$$
