
     RDKit          3D

 32 35  0  0  0  0  0  0  0  0999 V2000
    4.1734    0.5816   -2.4852 O   0  0  0  0  0  0  0  0  0  0  0  0
    3.6427    1.1166   -1.4637 C   0  0  0  0  0  0  0  0  0  0  0  0
    4.4064    1.9041   -0.5063 C   0  0  0  0  0  0  0  0  0  0  0  0
    5.8403    2.0907   -0.8246 C   0  0  0  0  0  0  0  0  0  0  0  0
    6.6555    0.8422   -0.9060 C   0  0  0  0  0  0  0  0  0  0  0  0
    6.6520    0.1099    0.3748 N   0  0  0  0  0  0  0  0  0  0  0  0
    7.5519    0.2905    1.3780 C   0  0  0  0  0  0  0  0  0  0  0  0
    7.1808   -0.5616    2.3849 C   0  0  0  0  0  0  0  0  0  0  0  0
    6.0667   -1.2338    1.9647 C   0  0  0  0  0  0  0  0  0  0  0  0
    5.7819   -0.7944    0.7422 N   0  0  0  0  0  0  0  0  0  0  0  0
    2.2424    0.9409   -1.2478 N   0  0  0  0  0  0  0  0  0  0  0  0
    1.5052    0.2066   -2.2559 C   0  0  0  0  0  0  0  0  0  0  0  0
    0.5961   -0.7678   -1.6022 C   0  0  0  0  0  0  0  0  0  0  0  0
   -0.0982   -0.1542   -0.5156 N   0  0  0  0  0  0  0  0  0  0  0  0
   -1.5412   -0.1489   -0.4873 C   0  0  0  0  0  0  0  0  0  0  0  0
   -2.2903   -0.0093   -1.6333 C   0  0  0  0  0  0  0  0  0  0  0  0
   -3.6557   -0.0745   -1.5739 C   0  0  0  0  0  0  0  0  0  0  0  0
   -4.4219    0.1276   -2.8274 C   0  0  0  0  0  0  0  0  0  0  0  0
   -4.9233   -1.1043   -3.2079 F   0  0  0  0  0  0  0  0  0  0  0  0
   -3.5809    0.5695   -3.8059 F   0  0  0  0  0  0  0  0  0  0  0  0
   -5.3953    1.0968   -2.6660 F   0  0  0  0  0  0  0  0  0  0  0  0
   -4.2703   -0.2815   -0.3773 N   0  0  0  0  0  0  0  0  0  0  0  0
   -3.5601   -0.4182    0.7475 C   0  0  0  0  0  0  0  0  0  0  0  0
   -4.1793   -0.7051    2.0354 C   0  0  0  0  0  0  0  0  0  0  0  0
   -5.4952   -1.1024    2.1227 C   0  0  0  0  0  0  0  0  0  0  0  0
   -6.0806   -1.3881    3.3643 C   0  0  0  0  0  0  0  0  0  0  0  0
   -5.3321   -1.2792    4.5077 C   0  0  0  0  0  0  0  0  0  0  0  0
   -4.0145   -0.8833    4.4300 C   0  0  0  0  0  0  0  0  0  0  0  0
   -3.4422   -0.5970    3.1951 C   0  0  0  0  0  0  0  0  0  0  0  0
   -2.2116   -0.3416    0.6414 N   0  0  0  0  0  0  0  0  0  0  0  0
    0.6221    0.4786    0.5558 C   0  0  0  0  0  0  0  0  0  0  0  0
    1.5752    1.4896   -0.0580 C   0  0  0  0  0  0  0  0  0  0  0  0
  1  2  2  0
  2  3  1  0
  3  4  1  0
  4  5  1  0
  5  6  1  0
  6  7  1  0
  7  8  2  0
  8  9  1  0
  9 10  2  0
  2 11  1  0
 11 12  1  0
 12 13  1  0
 13 14  1  0
 14 15  1  0
 15 16  2  0
 16 17  1  0
 17 18  1  0
 18 19  1  0
 18 20  1  0
 18 21  1  0
 17 22  2  0
 22 23  1  0
 23 24  1  0
 24 25  2  0
 25 26  1  0
 26 27  2  0
 27 28  1  0
 28 29  2  0
 23 30  2  0
 14 31  1  0
 31 32  1  0
 10  6  1  0
 32 11  1  0
 30 15  1  0
 29 24  1  0
M  END
>  <zinc_id>  (1) 
ZINC000000000114

>  <smiles>  (1) 
O=C(CCCn1cccn1)N1CCN(c2cc(C(F)(F)F)nc(-c3ccccc3)n2)CC1

$$$$
