
     RDKit          3D

 11 11  0  0  0  0  0  0  0  0999 V2000
   -2.4405    0.4435   -1.0819 O   0  0  0  0  0  0  0  0  0  0  0  0
   -2.0075    0.2444    0.0300 C   0  0  0  0  0  0  0  0  0  0  0  0
   -2.1843    1.1114    1.1035 O   0  0  0  0  0  0  0  0  0  0  0  0
   -1.1630   -1.0581    0.4216 C   0  0  1  0  0  0  0  0  0  0  0  0
   -1.2006   -1.6938   -0.9446 O   0  0  0  0  0  0  0  0  0  0  0  0
    0.2803   -0.3880    0.2096 C   0  0  0  0  0  0  0  0  0  0  0  0
    1.1638   -0.5193    1.2506 C   0  0  0  0  0  0  0  0  0  0  0  0
    2.4134    0.0614    1.0729 C   0  0  0  0  0  0  0  0  0  0  0  0
    2.7386    0.7265   -0.0801 C   0  0  0  0  0  0  0  0  0  0  0  0
    1.8144    0.8217   -1.0784 C   0  0  0  0  0  0  0  0  0  0  0  0
    0.5854    0.2503   -0.9031 C   0  0  0  0  0  0  0  0  0  0  0  0
  1  2  2  0
  2  3  1  0
  2  4  1  0
  4  5  1  6
  4  6  1  0
  6  7  2  0
  7  8  1  0
  8  9  2  0
  9 10  1  0
 10 11  2  0
 11  6  1  0
M  END
>  <zinc_id>  (1) 
ZINC000000000036

>  <smiles>  (1) 
O=C(O)[C@@H](O)c1ccccc1

$$$$
