
     RDKit          3D

 18 19  0  0  0  0  0  0  0  0999 V2000
   -3.4044   -1.8170    1.7579 C   0  0  0  0  0  0  0  0  0  0  0  0
   -3.5901   -1.1850    0.4053 C   0  0  0  0  0  0  0  0  0  0  0  0
   -3.2487    0.4075    0.5862 C   0  0  2  0  0  0  0  0  0  0  0  0
   -3.5004    0.8549   -0.9030 C   0  0  0  0  0  0  0  0  0  0  0  0
   -4.0111    1.9785   -0.9853 O   0  0  0  0  0  0  0  0  0  0  0  0
   -3.2193    0.1533   -1.9922 O   0  0  0  0  0  0  0  0  0  0  0  0
   -1.6656    0.2478    0.4159 C   0  0  0  0  0  0  0  0  0  0  0  0
   -1.1961   -0.4852   -0.6040 C   0  0  0  0  0  0  0  0  0  0  0  0
    0.1851   -0.6147   -0.7385 C   0  0  0  0  0  0  0  0  0  0  0  0
    1.0187    0.0103    0.1744 C   0  0  0  0  0  0  0  0  0  0  0  0
    2.4621   -0.1360    0.0167 C   0  0  0  0  0  0  0  0  0  0  0  0
    3.2663    0.9116    0.4303 C   0  0  0  0  0  0  0  0  0  0  0  0
    4.6359    0.8510    0.3149 C   0  0  0  0  0  0  0  0  0  0  0  0
    5.2230   -0.2645   -0.2186 C   0  0  0  0  0  0  0  0  0  0  0  0
    4.4232   -1.3024   -0.6280 C   0  0  0  0  0  0  0  0  0  0  0  0
    3.0517   -1.2631   -0.5221 C   0  0  0  0  0  0  0  0  0  0  0  0
    0.4684    0.7576    1.2117 C   0  0  0  0  0  0  0  0  0  0  0  0
   -0.8989    0.8955    1.3587 C   0  0  0  0  0  0  0  0  0  0  0  0
  1  2  1  0
  3  2  1  6
  3  4  1  0
  4  5  2  0
  4  6  1  0
  3  7  1  0
  7  8  2  0
  8  9  1  0
  9 10  2  0
 10 11  1  0
 11 12  2  0
 12 13  1  0
 13 14  2  0
 14 15  1  0
 15 16  2  0
 10 17  1  0
 17 18  2  0
 18  7  1  0
 16 11  1  0
M  END
>  <zinc_id>  (1) 
ZINC000000000111

>  <smiles>  (1) 
CC[C@H](C(=O)O)c1ccc(-c2ccccc2)cc1

$$$$
