
     RDKit          3D

 22 23  0  0  0  0  0  0  0  0999 V2000
   -3.0822   -3.2792    0.7353 C   0  0  0  0  0  0  0  0  0  0  0  0
   -2.2337   -2.2415    0.1396 C   0  0  0  0  0  0  0  0  0  0  0  0
   -1.0648   -2.5649   -0.5111 C   0  0  0  0  0  0  0  0  0  0  0  0
   -0.3051   -1.5840   -1.0481 C   0  0  0  0  0  0  0  0  0  0  0  0
   -0.6220   -0.2633   -0.9898 C   0  0  0  0  0  0  0  0  0  0  0  0
    0.0925    0.7578   -1.5060 O   0  0  0  0  0  0  0  0  0  0  0  0
    1.1963    1.0106   -2.1697 C   0  0  0  0  0  0  0  0  0  0  0  0
    2.5607    0.5562   -1.3725 C   0  0  2  0  0  0  0  0  0  0  0  0
    2.2295   -0.9306   -1.3295 O   0  0  0  0  0  0  0  0  0  0  0  0
    1.9325    0.8452    0.1500 C   0  0  0  0  0  0  0  0  0  0  0  0
    2.7132    0.0036    1.0120 N   0  0  0  0  0  0  0  0  0  0  0  0
    4.0873    0.4438    1.1086 C   0  0  0  0  0  0  0  0  0  0  0  0
    4.7888    0.3849   -0.2320 C   0  0  0  0  0  0  0  0  0  0  0  0
    4.0609    1.8923    1.5992 C   0  0  0  0  0  0  0  0  0  0  0  0
    4.8450   -0.4077    2.0839 C   0  0  0  0  0  0  0  0  0  0  0  0
   -1.8083    0.0610   -0.3294 C   0  0  0  0  0  0  0  0  0  0  0  0
   -2.1738    1.3171   -0.2365 O   0  0  0  0  0  0  0  0  0  0  0  0
   -3.2649    1.7310    0.3597 C   0  0  0  0  0  0  0  0  0  0  0  0
   -3.5222    2.9506    0.3926 O   0  0  0  0  0  0  0  0  0  0  0  0
   -4.0833    0.7788    0.9280 C   0  0  0  0  0  0  0  0  0  0  0  0
   -3.7630   -0.5587    0.8694 C   0  0  0  0  0  0  0  0  0  0  0  0
   -2.5834   -0.9028    0.2149 C   0  0  0  0  0  0  0  0  0  0  0  0
  1  2  1  0
  2  3  2  0
  3  4  1  0
  4  5  2  0
  5  6  1  0
  6  7  1  0
  7  8  1  0
  8  9  1  1
  8 10  1  0
 10 11  1  0
 11 12  1  0
 12 13  1  0
 12 14  1  0
 12 15  1  0
  5 16  1  0
 16 17  1  0
 17 18  1  0
 18 19  2  0
 18 20  1  0
 20 21  2  0
 21 22  1  0
 22  2  1  0
 22 16  2  0
M  END
>  <zinc_id>  (1) 
ZINC000000000100

>  <smiles>  (1) 
Cc1ccc(OC[C@H](O)CNC(C)(C)C)c2oc(=O)ccc12

$$$$
