
     RDKit          3D

 20 21  0  0  0  0  0  0  0  0999 V2000
    4.6321    0.1587    0.3070 C   0  0  0  0  0  0  0  0  0  0  0  0
    3.8314    0.0882   -0.8520 N   0  0  0  0  0  0  0  0  0  0  0  0
    4.1554    0.9081   -1.9390 C   0  0  0  0  0  0  0  0  0  0  0  0
    3.1871   -1.1487   -1.1133 C   0  0  0  0  0  0  0  0  0  0  0  0
    2.1446   -1.3312   -0.0366 C   0  0  0  0  0  0  0  0  0  0  0  0
    1.2878   -0.2414   -0.1662 O   0  0  0  0  0  0  0  0  0  0  0  0
    0.2645   -0.4977    0.9577 C   0  0  1  0  0  0  0  0  0  0  0  0
   -0.5936    0.8346    0.6349 C   0  0  0  0  0  0  0  0  0  0  0  0
   -0.9186    1.1093   -0.6266 C   0  0  0  0  0  0  0  0  0  0  0  0
   -1.6527    2.2469   -0.8920 C   0  0  0  0  0  0  0  0  0  0  0  0
   -2.0458    3.0872    0.1267 C   0  0  0  0  0  0  0  0  0  0  0  0
   -2.9855    4.5412   -0.2152 Cl  0  0  0  0  0  0  0  0  0  0  0  0
   -1.6750    2.7432    1.4119 C   0  0  0  0  0  0  0  0  0  0  0  0
   -0.9397    1.6068    1.6899 C   0  0  0  0  0  0  0  0  0  0  0  0
   -0.6271   -1.5141    0.1546 C   0  0  0  0  0  0  0  0  0  0  0  0
   -1.9576   -1.3737    0.2763 C   0  0  0  0  0  0  0  0  0  0  0  0
   -2.8448   -2.2420   -0.4042 C   0  0  0  0  0  0  0  0  0  0  0  0
   -2.2677   -3.2193   -1.1825 C   0  0  0  0  0  0  0  0  0  0  0  0
   -0.9030   -3.3082   -1.2642 C   0  0  0  0  0  0  0  0  0  0  0  0
   -0.0919   -2.4478   -0.5894 N   0  0  0  0  0  0  0  0  0  0  0  0
  1  2  1  0
  2  3  1  0
  2  4  1  0
  4  5  1  0
  5  6  1  0
  7  6  1  6
  7  8  1  0
  8  9  2  0
  9 10  1  0
 10 11  2  0
 11 12  1  0
 11 13  1  0
 13 14  2  0
  7 15  1  0
 15 16  2  0
 16 17  1  0
 17 18  2  0
 18 19  1  0
 19 20  2  0
 14  8  1  0
 20 15  1  0
M  END
>  <zinc_id>  (1) 
ZINC000000000122

>  <smiles>  (1) 
CN(C)CCO[C@@H](c1ccc(Cl)cc1)c1ccccn1

$$$$
