
     RDKit          3D

 12 11  0  0  0  0  0  0  0  0999 V2000
   -2.3409   -0.4477    0.5219 C   0  0  0  0  0  0  0  0  0  0  0  0
   -0.7714   -0.5712    1.0183 C   0  0  1  0  0  0  0  0  0  0  0  0
   -0.6476   -2.0856    0.5419 C   0  0  0  0  0  0  0  0  0  0  0  0
   -0.2011   -2.4271   -0.5251 O   0  0  0  0  0  0  0  0  0  0  0  0
   -1.1137   -3.0095    1.4931 O   0  0  0  0  0  0  0  0  0  0  0  0
   -0.1745    0.0739   -0.2634 N   0  0  0  0  0  0  0  0  0  0  0  0
   -0.5541    1.3538   -0.4673 C   0  0  0  0  0  0  0  0  0  0  0  0
   -0.1592    2.4790    0.3618 C   0  0  0  0  0  0  0  0  0  0  0  0
   -0.9263    3.9517   -0.3304 Cl  0  0  0  0  0  0  0  0  0  0  0  0
    1.2463   -0.1005   -0.0628 C   0  0  0  0  0  0  0  0  0  0  0  0
    1.9470    0.4943   -1.2587 C   0  0  0  0  0  0  0  0  0  0  0  0
    3.6956    0.2888   -1.0294 Cl  0  0  0  0  0  0  0  0  0  0  0  0
  2  1  1  6
  2  3  1  0
  3  4  2  0
  3  5  1  0
  2  6  1  0
  6  7  1  0
  7  8  1  0
  8  9  1  0
  6 10  1  0
 10 11  1  0
 11 12  1  0
M  END
>  <zinc_id>  (1) 
ZINC000000000015

>  <smiles>  (1) 
C[C@@H](C(=O)O)N(CCCl)CCCl

$$$$
