
     RDKit          3D

 24 25  0  0  0  0  0  0  0  0999 V2000
    5.8912   -0.2005    2.8102 C   0  0  0  0  0  0  0  0  0  0  0  0
    5.5893   -0.2661    1.3343 C   0  0  0  0  0  0  0  0  0  0  0  0
    6.6918    0.3979    0.5322 C   0  0  0  0  0  0  0  0  0  0  0  0
    5.5192   -1.7103    0.8528 C   0  0  0  0  0  0  0  0  0  0  0  0
    4.3415    0.4012    1.1046 N   0  0  0  0  0  0  0  0  0  0  0  0
    4.0257    0.3518   -0.3170 C   0  0  0  0  0  0  0  0  0  0  0  0
    2.5676    1.1634   -0.3861 C   0  0  1  0  0  0  0  0  0  0  0  0
    2.4401    0.9958   -1.8828 O   0  0  0  0  0  0  0  0  0  0  0  0
    1.6802   -0.1429    0.0187 C   0  0  0  0  0  0  0  0  0  0  0  0
    0.4220   -0.0527   -0.3757 O   0  0  0  0  0  0  0  0  0  0  0  0
   -0.2478    0.0277   -1.5272 C   0  0  0  0  0  0  0  0  0  0  0  0
    0.2776    0.0250   -2.8243 C   0  0  0  0  0  0  0  0  0  0  0  0
   -0.4825    0.1073   -3.9315 C   0  0  0  0  0  0  0  0  0  0  0  0
   -1.8549    0.1996   -3.7950 C   0  0  0  0  0  0  0  0  0  0  0  0
   -2.4125    0.2051   -2.5217 C   0  0  0  0  0  0  0  0  0  0  0  0
   -1.6481    0.1220   -1.3914 C   0  0  0  0  0  0  0  0  0  0  0  0
   -2.1988    0.1264   -0.0916 N   0  0  0  0  0  0  0  0  0  0  0  0
   -3.5774    0.2154    0.1878 C   0  0  0  0  0  0  0  0  0  0  0  0
   -4.3315    0.2949   -0.8351 O   0  0  0  0  0  0  0  0  0  0  0  0
   -4.1557    0.2209    1.5185 C   0  0  0  0  0  0  0  0  0  0  0  0
   -5.4606    0.3011    1.9363 C   0  0  0  0  0  0  0  0  0  0  0  0
   -5.4812    0.2670    3.2925 C   0  0  0  0  0  0  0  0  0  0  0  0
   -4.1640    0.1646    3.6877 C   0  0  0  0  0  0  0  0  0  0  0  0
   -3.4313    0.1418    2.6039 O   0  0  0  0  0  0  0  0  0  0  0  0
  1  2  1  0
  2  3  1  0
  2  4  1  0
  2  5  1  0
  5  6  1  0
  6  7  1  0
  7  8  1  6
  7  9  1  0
  9 10  1  0
 10 11  1  0
 11 12  2  0
 12 13  1  0
 13 14  2  0
 14 15  1  0
 15 16  2  0
 16 17  1  0
 17 18  1  0
 18 19  2  0
 18 20  1  0
 20 21  2  0
 21 22  1  0
 22 23  2  0
 23 24  1  0
 16 11  1  0
 24 20  1  0
M  END
>  <zinc_id>  (1) 
ZINC000000000039

>  <smiles>  (1) 
CC(C)(C)NC[C@@H](O)COc1ccccc1NC(=O)c1ccco1

$$$$
