
     RDKit          3D

 24 28  0  0  0  0  0  0  0  0999 V2000
   -0.7801   -2.8279    0.3498 C   0  0  0  0  0  0  0  0  0  0  0  0
   -1.3108   -1.4597   -0.0436 C   0  0  2  0  0  0  0  0  0  0  0  0
   -2.5257   -1.2827    0.6674 C   0  0  0  0  0  0  0  0  0  0  0  0
   -3.0960    0.0379    0.3217 C   0  0  0  0  0  0  0  0  0  0  0  0
   -3.4657    1.2115    0.8841 C   0  0  0  0  0  0  0  0  0  0  0  0
   -3.9004    1.9689   -0.0920 O   0  0  0  0  0  0  0  0  0  0  0  0
   -3.8250    1.3406   -1.2278 N   0  0  0  0  0  0  0  0  0  0  0  0
   -3.3255    0.1191   -1.0274 C   0  0  0  0  0  0  0  0  0  0  0  0
   -2.9836   -1.0872   -1.7861 C   0  0  0  0  0  0  0  0  0  0  0  0
   -1.4294   -1.4416   -1.6455 C   0  0  1  0  0  0  0  0  0  0  0  0
   -0.9204    0.0476   -2.0376 C   0  0  0  0  0  0  0  0  0  0  0  0
    0.6165    0.0389   -1.9108 C   0  0  0  0  0  0  0  0  0  0  0  0
    0.8276   -1.1240   -0.8472 C   0  0  2  0  0  0  0  0  0  0  0  0
   -0.1839   -0.3746    0.2666 C   0  0  2  0  0  0  0  0  0  0  0  0
    0.5086   -0.9763    1.5844 C   0  0  0  0  0  0  0  0  0  0  0  0
    1.3761    0.2889    1.8058 C   0  0  0  0  0  0  0  0  0  0  0  0
    2.0435    0.6495    0.5260 C   0  0  2  0  0  0  0  0  0  0  0  0
    1.4590    1.6187   -0.3455 C   0  0  0  0  0  0  0  0  0  0  0  0
    2.3002   -0.7810   -0.1497 C   0  0  2  0  0  0  0  0  0  0  0  0
    3.0512   -0.1602   -1.4318 C   0  0  0  0  0  0  0  0  0  0  0  0
    4.1555    0.5468   -0.6548 C   0  0  0  0  0  0  0  0  0  0  0  0
    3.5392    0.9627    0.6810 C   0  0  1  0  0  0  0  0  0  0  0  0
    3.7628    2.4524    0.8053 C   0  0  0  0  0  0  0  0  0  0  0  0
    4.1064    0.2317    1.6933 O   0  0  0  0  0  0  0  0  0  0  0  0
  2  1  1  6
  2  3  1  0
  3  4  1  0
  4  5  2  0
  5  6  1  0
  6  7  1  0
  7  8  2  0
  8  9  1  0
 10  9  1  1
 10 11  1  0
 11 12  1  0
 13 12  1  6
 13 14  1  0
 14 15  1  1
 15 16  1  0
 16 17  1  0
 17 18  1  6
 17 19  1  0
 19 20  1  6
 20 21  1  0
 21 22  1  0
 22 23  1  1
 22 24  1  0
 10  2  1  0
 19 13  1  0
 14  2  1  0
 22 17  1  0
  8  4  1  0
M  END
>  <zinc_id>  (1) 
ZINC000000000040

>  <smiles>  (1) 
C[C@]12Cc3conc3C[C@H]1CC[C@@H]1[C@@H]2CC[C@]2(C)[C@@H]1CC[C@]2(C)O

$$$$
