
##########                                Name:        DAY_301_3BQD
##########                    Molecular_Weight:             489.635
##########                DOCK_Rotatable_Bonds:                   6
##########                       Formal_Charge:              0.9995
##########                     HBond_Acceptors:                   6
##########                        HBond_Donors:                   3
##########                         Heavy_Atoms:                  36
##########                            HA_RMSDs:              19.387
##########                            HA_RMSDh:              19.092
##########                            HA_RMSDm:              17.721
##########                          Grid_Score:          -52.943138
##########                     Grid_vdw_energy:          -17.691612
##########                      Grid_es_energy:          -35.251526
##########           Internal_energy_repulsive:           56.721828

@<TRIPOS>MOLECULE
DAY_301_3BQD
 73 78 1 0 0
SMALL
USER_CHARGES


@<TRIPOS>ATOM
      1 C1         57.4621   21.7421   11.1204 C.3     1  <0>        -0.0594
      2 C2         54.0286   23.4673   17.7405 C.3     1  <0>        -0.0132
      3 C3         53.0320   20.9722   11.2565 C.3     1  <0>        -0.0561
      4 C4         50.6888   21.0987   15.5101 C.3     1  <0>        -0.0493
      5 C5         50.7916   21.8819   24.0280 C.ar    1  <0>        -0.0616
      6 C6         50.3275   22.2252   22.6557 C.ar    1  <0>        -0.0594
      7 C7         51.4032   20.5613   24.0454 C.ar    1  <0>        -0.0594
      8 C8         50.4344   21.4908   21.5121 C.ar    1  <0>        -0.0318
      9 C9         51.4832   19.7538   22.7065 C.ar    1  <0>        -0.0318
     10 C10        55.4530   22.3140   12.3738 C.3     1  <0>        -0.0430
     11 C11        53.6657   18.8504   12.7420 C.3     1  <0>        -0.0178
     12 C12        51.4092   19.1530   16.6526 C.3     1  <0>         0.0097
     13 C13        50.5489   17.6690   18.7432 C.3     1  <0>         0.1306
     14 C14        54.1537   22.5528   15.3738 C.2     1  <0>        -0.0232
     15 C15        52.2414   21.2450   18.4275 C.2     1  <0>         0.0519
     16 C16        54.5944   18.0207    9.6276 C.3     1  <0>         0.1052
     17 C17        51.0169   20.2155   21.4107 C.ar    1  <0>         0.0908
     18 C18        55.9468   21.5973   11.1362 C.3     1  <0>        -0.0071
     19 C19        54.7369   21.1765   13.2269 C.3     1  <0>        -0.0209
     20 C20        52.6553   19.1002   13.8452 C.3     1  <0>         0.0608
     21 C21        53.6492   21.5523   14.2756 C.3     1  <0>         0.0089
     22 C22        53.1593   20.1537   14.9279 C.3     1  <0>         0.0113
     23 C23        53.5684   22.5291   16.7657 C.2     1  <0>         0.0239
     24 C24        51.1818   18.9202   17.9551 C.2     1  <0>         0.0444
     25 C25        52.4757   21.4251   17.0820 C.2     1  <0>         0.0437
     26 C26        51.5521   19.9594   18.9679 C.2     1  <0>         0.1604
     27 C27        55.2107   19.4316    9.8326 C.2     1  <0>         0.1904
     28 C28        54.2040   20.1920   12.0732 C.3     1  <0>         0.0101
     29 C29        52.0252   20.3926   16.0114 C.3     1  <0>         0.0340
     30 C30        55.4901   20.0746   11.2622 C.3     1  <0>         0.1340
     31 N1         50.6800   18.3930   20.1344 N.2     1  <0>        -0.1299
     32 N2         50.9745   19.6633   20.2785 N.pl3   1  <0>        -0.1199
     33 O1         54.8538   17.4701    8.3460 O.3     1  <0>        -0.3874
     34 O2         51.4485   19.5079   13.2018 O.3     1  <0>        -0.3914
     35 O3         56.5340   19.3231   11.9829 O.3     1  <0>        -0.3802
     36 O4         55.4866   20.0554    8.8157 O.2     1  <0>        -0.2919
     37 H1         57.8703   21.2344   10.2341 H       1  <0>         0.0233
     38 H2         57.7280   22.8090   11.0866 H       1  <0>         0.0233
     39 H3         57.8832   21.2878   12.0294 H       1  <0>         0.0233
     40 H4         53.4951   23.3033   18.6884 H       1  <0>         0.0339
     41 H5         55.1084   23.3308   17.8993 H       1  <0>         0.0339
     42 H6         53.8366   24.4901   17.3841 H       1  <0>         0.0339
     43 H7         53.4434   21.8901   10.8113 H       1  <0>         0.0236
     44 H8         52.6443   20.3204   10.4597 H       1  <0>         0.0236
     45 H9         52.2161   21.2333   11.9465 H       1  <0>         0.0236
     46 H10        50.9397   22.0426   15.0042 H       1  <0>         0.0243
     47 H11        50.1647   20.4344   14.8073 H       1  <0>         0.0243
     48 H12        50.0385   21.3068   16.3725 H       1  <0>         0.0243
     49 H13        50.6887   22.5236   24.8906 H       1  <0>         0.0618
     50 H14        49.8414   23.1840   22.5523 H       1  <0>         0.0618
     51 H15        51.7938   20.1469   24.9631 H       1  <0>         0.0618
     52 H16        50.0376   21.9259   20.6068 H       1  <0>         0.0642
     53 H17        51.9230   18.7684   22.7501 H       1  <0>         0.0642
     54 H18        56.2864   22.7656   12.9319 H       1  <0>         0.0272
     55 H19        54.7503   23.1195   12.1142 H       1  <0>         0.0272
     56 H20        54.5224   18.3122   13.1739 H       1  <0>         0.0297
     57 H21        53.1818   18.2453   11.9611 H       1  <0>         0.0297
     58 H22        52.0917   18.3418   16.3588 H       1  <0>         0.0382
     59 H23        50.4084   19.0959   16.1996 H       1  <0>         0.0382
     60 H24        49.5270   17.3886   18.4477 H       1  <0>         0.0706
     61 H25        51.0972   16.7203   18.6475 H       1  <0>         0.0706
     62 H26        54.9278   23.2659   15.1319 H       1  <0>         0.0961
     63 H27        52.5431   22.0140   19.1232 H       1  <0>         0.1094
     64 H28        55.0236   17.3464   10.3833 H       1  <0>         0.0637
     65 H29        53.5044   18.1019    9.7513 H       1  <0>         0.0637
     66 H30        55.5421   22.0056   10.1984 H       1  <0>         0.0330
     67 H31        55.4546   20.7518   13.9442 H       1  <0>         0.0317
     68 H32        52.4944   18.1823   14.4297 H       1  <0>         0.0597
     69 H33        52.8252   22.0890   13.7827 H       1  <0>         0.0408
     70 H34        54.0470   19.7239   15.4150 H       1  <0>         0.0349
     71 H35        55.2384   18.1352    7.7871 H       1  <0>         0.2100
     72 H36        50.7556   19.5853   13.8471 H       1  <0>         0.2098
     73 H37        56.1712   18.5066   12.3058 H       1  <0>         0.2108
@<TRIPOS>BOND
     1     1    18    1
     2     2    23    1
     3     3    28    1
     4     4    29    1
     5     5     6   ar
     6     5     7   ar
     7     6     8   ar
     8     7     9   ar
     9     8    17   ar
    10     9    17   ar
    11    10    18    1
    12    10    19    1
    13    11    20    1
    14    11    28    1
    15    12    24    1
    16    12    29    1
    17    13    24    1
    18    13    31    1
    19    14    21    1
    20    14    23    2
    21    15    25    2
    22    15    26    1
    23    16    27    1
    24    16    33    1
    25    17    32    1
    26    18    30    1
    27    19    21    1
    28    19    28    1
    29    20    22    1
    30    20    34    1
    31    21    22    1
    32    22    29    1
    33    23    25    1
    34    24    26    2
    35    25    29    1
    36    26    32    1
    37    27    30    1
    38    27    36    2
    39    28    30    1
    40    30    35    1
    41    31    32    2
    42     1    37    1
    43     1    38    1
    44     1    39    1
    45     2    40    1
    46     2    41    1
    47     2    42    1
    48     3    43    1
    49     3    44    1
    50     3    45    1
    51     4    46    1
    52     4    47    1
    53     4    48    1
    54     5    49    1
    55     6    50    1
    56     7    51    1
    57     8    52    1
    58     9    53    1
    59    10    54    1
    60    10    55    1
    61    11    56    1
    62    11    57    1
    63    12    58    1
    64    12    59    1
    65    13    60    1
    66    13    61    1
    67    14    62    1
    68    15    63    1
    69    16    64    1
    70    16    65    1
    71    18    66    1
    72    19    67    1
    73    20    68    1
    74    21    69    1
    75    22    70    1
    76    33    71    1
    77    34    72    1
    78    35    73    1
@<TRIPOS>SUBSTRUCTURE
     1 <0>         1 TEMP              0 ****  ****    0 ROOT

