
##########                                Name:        DAY_301_3BQD
##########                    Molecular_Weight:             489.635
##########                DOCK_Rotatable_Bonds:                   6
##########                       Formal_Charge:              0.9995
##########                     HBond_Acceptors:                   6
##########                        HBond_Donors:                   3
##########                         Heavy_Atoms:                  36
##########                            HA_RMSDs:              20.016
##########                            HA_RMSDh:              19.648
##########                            HA_RMSDm:              17.564
##########                          Grid_Score:          -69.541199
##########                     Grid_vdw_energy:          -29.671045
##########                      Grid_es_energy:          -39.870152
##########           Internal_energy_repulsive:           57.880875

@<TRIPOS>MOLECULE
DAY_301_3BQD
 73 78 1 0 0
SMALL
USER_CHARGES


@<TRIPOS>ATOM
      1 C1         34.4355   42.9656   -0.0598 C.3     1  <0>        -0.0594
      2 C2         38.6800   44.9938    5.9785 C.3     1  <0>        -0.0132
      3 C3         37.9062   45.6812   -0.9633 C.3     1  <0>        -0.0561
      4 C4         40.2675   47.8730    2.6726 C.3     1  <0>        -0.0493
      5 C5         41.0960   49.6135   11.0052 C.ar    1  <0>        -0.0616
      6 C6         41.5725   49.1302    9.6801 C.ar    1  <0>        -0.0594
      7 C7         39.9266   50.4658   10.8481 C.ar    1  <0>        -0.0594
      8 C8         41.0468   49.3727    8.4459 C.ar    1  <0>        -0.0318
      9 C9         39.3757   50.7254    9.4058 C.ar    1  <0>        -0.0318
     10 C10        36.5389   43.7658    0.8728 C.3     1  <0>        -0.0430
     11 C11        36.4019   47.6034    0.1105 C.3     1  <0>        -0.0178
     12 C12        38.7535   49.5085    3.4746 C.3     1  <0>         0.0097
     13 C13        38.8979   51.7527    4.9766 C.3     1  <0>         0.1306
     14 C14        37.9717   45.0240    3.5392 C.2     1  <0>        -0.0232
     15 C15        39.1758   47.8792    5.7954 C.2     1  <0>         0.0519
     16 C16        35.2531   46.9741   -2.8963 C.3     1  <0>         0.1052
     17 C17        39.9164   50.1649    8.1798 C.ar    1  <0>         0.0908
     18 C18        35.6792   43.7859   -0.3721 C.3     1  <0>        -0.0071
     19 C19        36.6518   45.2961    1.2969 C.3     1  <0>        -0.0209
     20 C20        37.4708   48.1738    1.0230 C.3     1  <0>         0.0608
     21 C21        37.8465   45.7802    2.1702 C.3     1  <0>         0.0089
     22 C22        37.6216   47.3687    2.3889 C.3     1  <0>         0.0113
     23 C23        38.5549   45.7128    4.7499 C.2     1  <0>         0.0239
     24 C24        38.9174   50.1836    4.6235 C.2     1  <0>         0.0444
     25 C25        38.9772   47.2329    4.5951 C.2     1  <0>         0.0437
     26 C26        39.1727   49.4316    5.8932 C.2     1  <0>         0.1604
     27 C27        35.1667   45.5691   -2.2400 C.2     1  <0>         0.1904
     28 C28        36.5557   46.0359   -0.1270 C.3     1  <0>         0.0101
     29 C29        38.7911   47.9992    3.2560 C.3     1  <0>         0.0340
     30 C30        35.3314   45.3120   -0.6772 C.3     1  <0>         0.1340
     31 N1         39.2288   51.4844    6.4916 N.2     1  <0>        -0.1299
     32 N2         39.6096   50.3227    6.9675 N.pl3   1  <0>        -0.1199
     33 O1         34.8343   46.9929   -4.2517 O.3     1  <0>        -0.3874
     34 O2         38.6785   48.1983    0.2632 O.3     1  <0>        -0.3914
     35 O3         34.1000   45.6735    0.0486 O.3     1  <0>        -0.3802
     36 O4         34.9572   44.6295   -2.9968 O.2     1  <0>        -0.2919
     37 H1         33.7752   42.9504   -0.9395 H       1  <0>         0.0233
     38 H2         34.7295   41.9369    0.1956 H       1  <0>         0.0233
     39 H3         33.9029   43.4167    0.7904 H       1  <0>         0.0233
     40 H4         39.1211   45.6491    6.7441 H       1  <0>         0.0339
     41 H5         37.6860   44.6598    6.3105 H       1  <0>         0.0339
     42 H6         39.3292   44.1189    5.8266 H       1  <0>         0.0339
     43 H7         37.9747   44.5926   -1.1056 H       1  <0>         0.0236
     44 H8         37.8708   46.1775   -1.9444 H       1  <0>         0.0236
     45 H9         38.7861   46.0341   -0.4053 H       1  <0>         0.0236
     46 H10        40.4842   46.8186    2.4468 H       1  <0>         0.0243
     47 H11        40.3500   48.4694    1.7520 H       1  <0>         0.0243
     48 H12        40.9883   48.2443    3.4160 H       1  <0>         0.0243
     49 H13        41.5543   49.3662   11.9513 H       1  <0>         0.0618
     50 H14        42.4521   48.5038    9.6992 H       1  <0>         0.0618
     51 H15        39.4487   50.9099   11.7088 H       1  <0>         0.0618
     52 H16        41.5409   48.9173    7.6004 H       1  <0>         0.0642
     53 H17        38.5196   51.3775    9.3146 H       1  <0>         0.0642
     54 H18        36.0740   43.1651    1.6684 H       1  <0>         0.0272
     55 H19        37.5298   43.3354    0.6659 H       1  <0>         0.0272
     56 H20        35.4203   47.7880    0.5712 H       1  <0>         0.0297
     57 H21        36.4740   48.1089   -0.8638 H       1  <0>         0.0297
     58 H22        37.7426   49.7936    3.1475 H       1  <0>         0.0382
     59 H23        39.5649   49.8844    2.8340 H       1  <0>         0.0382
     60 H24        39.6273   52.3714    4.4331 H       1  <0>         0.0706
     61 H25        37.9479   52.2719    4.7822 H       1  <0>         0.0706
     62 H26        37.6373   44.0000    3.6165 H       1  <0>         0.0961
     63 H27        39.3374   47.2946    6.6890 H       1  <0>         0.1094
     64 H28        34.6053   47.6579   -2.3282 H       1  <0>         0.0637
     65 H29        36.3009   47.3067   -2.8569 H       1  <0>         0.0637
     66 H30        36.1731   43.3578   -1.2568 H       1  <0>         0.0330
     67 H31        35.8645   45.5312    2.0283 H       1  <0>         0.0317
     68 H32        37.1937   49.1877    1.3473 H       1  <0>         0.0597
     69 H33        38.7953   45.5642    1.6573 H       1  <0>         0.0408
     70 H34        36.6700   47.4639    2.9322 H       1  <0>         0.0349
     71 H35        34.0277   46.4990   -4.3412 H       1  <0>         0.2100
     72 H36        39.0974   49.0453    0.3607 H       1  <0>         0.2098
     73 H37        34.0809   46.6123    0.1928 H       1  <0>         0.2108
@<TRIPOS>BOND
     1     1    18    1
     2     2    23    1
     3     3    28    1
     4     4    29    1
     5     5     6   ar
     6     5     7   ar
     7     6     8   ar
     8     7     9   ar
     9     8    17   ar
    10     9    17   ar
    11    10    18    1
    12    10    19    1
    13    11    20    1
    14    11    28    1
    15    12    24    1
    16    12    29    1
    17    13    24    1
    18    13    31    1
    19    14    21    1
    20    14    23    2
    21    15    25    2
    22    15    26    1
    23    16    27    1
    24    16    33    1
    25    17    32    1
    26    18    30    1
    27    19    21    1
    28    19    28    1
    29    20    22    1
    30    20    34    1
    31    21    22    1
    32    22    29    1
    33    23    25    1
    34    24    26    2
    35    25    29    1
    36    26    32    1
    37    27    30    1
    38    27    36    2
    39    28    30    1
    40    30    35    1
    41    31    32    2
    42     1    37    1
    43     1    38    1
    44     1    39    1
    45     2    40    1
    46     2    41    1
    47     2    42    1
    48     3    43    1
    49     3    44    1
    50     3    45    1
    51     4    46    1
    52     4    47    1
    53     4    48    1
    54     5    49    1
    55     6    50    1
    56     7    51    1
    57     8    52    1
    58     9    53    1
    59    10    54    1
    60    10    55    1
    61    11    56    1
    62    11    57    1
    63    12    58    1
    64    12    59    1
    65    13    60    1
    66    13    61    1
    67    14    62    1
    68    15    63    1
    69    16    64    1
    70    16    65    1
    71    18    66    1
    72    19    67    1
    73    20    68    1
    74    21    69    1
    75    22    70    1
    76    33    71    1
    77    34    72    1
    78    35    73    1
@<TRIPOS>SUBSTRUCTURE
     1 <0>         1 TEMP              0 ****  ****    0 ROOT

