
##########                                Name:        DAY_301_3BQD
##########                    Molecular_Weight:             489.635
##########                DOCK_Rotatable_Bonds:                   6
##########                       Formal_Charge:              0.9995
##########                     HBond_Acceptors:                   6
##########                        HBond_Donors:                   3
##########                         Heavy_Atoms:                  36
##########                            HA_RMSDs:              13.129
##########                            HA_RMSDh:              13.129
##########                            HA_RMSDm:              10.078
##########                          Grid_Score:         1452.267822
##########                     Grid_vdw_energy:         1512.147583
##########                      Grid_es_energy:          -59.879700
##########           Internal_energy_repulsive:           71.766510

@<TRIPOS>MOLECULE
DAY_301_3BQD
 73 78 1 0 0
SMALL
USER_CHARGES


@<TRIPOS>ATOM
      1 C1         52.9761   22.5481   20.4934 C.3     1  <0>        -0.0594
      2 C2         49.8071   24.5945   13.8331 C.3     1  <0>        -0.0132
      3 C3         49.6662   19.8772   19.0280 C.3     1  <0>        -0.0561
      4 C4         46.8485   21.3232   15.3444 C.3     1  <0>        -0.0493
      5 C5         44.7945   27.3984    9.7515 C.ar    1  <0>        -0.0616
      6 C6         45.6776   26.4097   10.4293 C.ar    1  <0>        -0.0594
      7 C7         43.5940   27.6360   10.5393 C.ar    1  <0>        -0.0594
      8 C8         45.4916   25.7806   11.6243 C.ar    1  <0>        -0.0318
      9 C9         43.4234   26.8727   11.8956 C.ar    1  <0>        -0.0318
     10 C10        51.7172   21.9775   18.4875 C.3     1  <0>        -0.0430
     11 C11        48.0338   21.8367   19.8065 C.3     1  <0>        -0.0178
     12 C12        45.5130   23.0561   16.2520 C.3     1  <0>         0.0097
     13 C13        43.2084   24.3102   15.5966 C.3     1  <0>         0.1306
     14 C14        50.0527   23.1982   15.9409 C.2     1  <0>        -0.0232
     15 C15        46.8953   24.4000   14.1302 C.2     1  <0>         0.0519
     16 C16        49.0906   20.4214   22.6575 C.3     1  <0>         0.1052
     17 C17        44.3818   25.9454   12.4712 C.ar    1  <0>         0.0908
     18 C18        51.9388   21.5858   19.9320 C.3     1  <0>        -0.0071
     19 C19        50.1751   22.3671   18.4184 C.3     1  <0>        -0.0209
     20 C20        47.2102   21.8951   18.5342 C.3     1  <0>         0.0608
     21 C21        49.4125   22.3070   17.0624 C.3     1  <0>         0.0089
     22 C22        47.8931   22.7630   17.3867 C.3     1  <0>         0.0113
     23 C23        49.1957   23.8066   14.8566 C.2     1  <0>         0.0239
     24 C24        44.7577   23.8858   15.5146 C.2     1  <0>         0.0444
     25 C25        47.6322   23.5561   14.9318 C.2     1  <0>         0.0437
     26 C26        45.3727   24.6182   14.3622 C.2     1  <0>         0.1604
     27 C27        50.4000   20.6581   21.8563 C.2     1  <0>         0.1904
     28 C28        49.5481   21.4140   19.5509 C.3     1  <0>         0.0101
     29 C29        46.9929   22.7277   16.0808 C.3     1  <0>         0.0340
     30 C30        50.5336   21.7169   20.6745 C.3     1  <0>         0.1340
     31 N1         43.3220   25.2247   14.3209 N.2     1  <0>        -0.1299
     32 N2         44.3550   25.2354   13.5123 N.pl3   1  <0>        -0.1199
     33 O1         49.0900   19.2103   23.3966 O.3     1  <0>        -0.3874
     34 O2         46.9825   20.5430   18.1389 O.3     1  <0>        -0.3914
     35 O3         50.3906   23.0937   21.1821 O.3     1  <0>        -0.3802
     36 O4         51.3641   19.9761   22.1800 O.2     1  <0>        -0.2919
     37 H1         53.1722   22.3025   21.5476 H       1  <0>         0.0233
     38 H2         53.9086   22.4591   19.9168 H       1  <0>         0.0233
     39 H3         52.5972   23.5783   20.4215 H       1  <0>         0.0233
     40 H4         49.0358   24.9528   13.1354 H       1  <0>         0.0339
     41 H5         50.3173   25.4557   14.2891 H       1  <0>         0.0339
     42 H6         50.5392   23.9815   13.2868 H       1  <0>         0.0339
     43 H7         50.7244   19.6254   18.8640 H       1  <0>         0.0236
     44 H8         49.2410   19.1994   19.7830 H       1  <0>         0.0236
     45 H9         49.1128   19.7678   18.0836 H       1  <0>         0.0236
     46 H10        47.8478   20.9157   15.1314 H       1  <0>         0.0243
     47 H11        46.2983   20.6246   15.9920 H       1  <0>         0.0243
     48 H12        46.2993   21.4587   14.4009 H       1  <0>         0.0243
     49 H13        45.0142   27.8732    8.8067 H       1  <0>         0.0618
     50 H14        46.5868   26.1573    9.9041 H       1  <0>         0.0618
     51 H15        42.8364   28.3247   10.1955 H       1  <0>         0.0618
     52 H16        46.2627   25.0973   11.9480 H       1  <0>         0.0642
     53 H17        42.5146   27.0510   12.4513 H       1  <0>         0.0642
     54 H18        52.3558   22.8265   18.2024 H       1  <0>         0.0272
     55 H19        51.9482   21.1436   17.8084 H       1  <0>         0.0272
     56 H20        48.0273   22.8351   20.2681 H       1  <0>         0.0297
     57 H21        47.5774   21.0958   20.4795 H       1  <0>         0.0297
     58 H22        45.4568   23.4836   17.2640 H       1  <0>         0.0382
     59 H23        45.0155   22.0815   16.1384 H       1  <0>         0.0382
     60 H24        42.4850   23.4844   15.5267 H       1  <0>         0.0706
     61 H25        42.9038   24.8208   16.5220 H       1  <0>         0.0706
     62 H26        51.1175   23.3785   15.9445 H       1  <0>         0.0961
     63 H27        47.3859   24.9220   13.3220 H       1  <0>         0.1094
     64 H28        48.9666   21.2544   23.3650 H       1  <0>         0.0637
     65 H29        48.2540   20.3877   21.9441 H       1  <0>         0.0637
     66 H30        52.3050   20.5564   20.0592 H       1  <0>         0.0330
     67 H31        50.0653   23.4510   18.5707 H       1  <0>         0.0317
     68 H32        46.2575   22.4125   18.7203 H       1  <0>         0.0597
     69 H33        49.4591   21.2871   16.6530 H       1  <0>         0.0408
     70 H34        47.9636   23.7968   17.7556 H       1  <0>         0.0349
     71 H35        49.8583   18.6998   23.1695 H       1  <0>         0.2100
     72 H36        46.3194   20.5187   17.4590 H       1  <0>         0.2098
     73 H37        49.5806   23.1682   21.6730 H       1  <0>         0.2108
@<TRIPOS>BOND
     1     1    18    1
     2     2    23    1
     3     3    28    1
     4     4    29    1
     5     5     6   ar
     6     5     7   ar
     7     6     8   ar
     8     7     9   ar
     9     8    17   ar
    10     9    17   ar
    11    10    18    1
    12    10    19    1
    13    11    20    1
    14    11    28    1
    15    12    24    1
    16    12    29    1
    17    13    24    1
    18    13    31    1
    19    14    21    1
    20    14    23    2
    21    15    25    2
    22    15    26    1
    23    16    27    1
    24    16    33    1
    25    17    32    1
    26    18    30    1
    27    19    21    1
    28    19    28    1
    29    20    22    1
    30    20    34    1
    31    21    22    1
    32    22    29    1
    33    23    25    1
    34    24    26    2
    35    25    29    1
    36    26    32    1
    37    27    30    1
    38    27    36    2
    39    28    30    1
    40    30    35    1
    41    31    32    2
    42     1    37    1
    43     1    38    1
    44     1    39    1
    45     2    40    1
    46     2    41    1
    47     2    42    1
    48     3    43    1
    49     3    44    1
    50     3    45    1
    51     4    46    1
    52     4    47    1
    53     4    48    1
    54     5    49    1
    55     6    50    1
    56     7    51    1
    57     8    52    1
    58     9    53    1
    59    10    54    1
    60    10    55    1
    61    11    56    1
    62    11    57    1
    63    12    58    1
    64    12    59    1
    65    13    60    1
    66    13    61    1
    67    14    62    1
    68    15    63    1
    69    16    64    1
    70    16    65    1
    71    18    66    1
    72    19    67    1
    73    20    68    1
    74    21    69    1
    75    22    70    1
    76    33    71    1
    77    34    72    1
    78    35    73    1
@<TRIPOS>SUBSTRUCTURE
     1 <0>         1 TEMP              0 ****  ****    0 ROOT

