
##########                                Name:        DAY_301_3BQD
##########                    Molecular_Weight:             489.635
##########                DOCK_Rotatable_Bonds:                   6
##########                       Formal_Charge:              0.9995
##########                     HBond_Acceptors:                   6
##########                        HBond_Donors:                   3
##########                         Heavy_Atoms:                  36
##########                            HA_RMSDs:              10.828
##########                            HA_RMSDh:               9.731
##########                            HA_RMSDm:               8.760
##########                          Grid_Score:         2968.849609
##########                     Grid_vdw_energy:         3029.187744
##########                      Grid_es_energy:          -60.338093
##########           Internal_energy_repulsive:           59.832657

@<TRIPOS>MOLECULE
DAY_301_3BQD
 73 78 1 0 0
SMALL
USER_CHARGES


@<TRIPOS>ATOM
      1 C1         40.2557   28.8874    6.2919 C.3     1  <0>        -0.0594
      2 C2         46.4782   26.0629    9.7406 C.3     1  <0>        -0.0132
      3 C3         41.0689   30.4834   10.4184 C.3     1  <0>        -0.0561
      4 C4         44.3706   28.3085   13.2412 C.3     1  <0>        -0.0493
      5 C5         49.9587   21.9887   14.4862 C.ar    1  <0>        -0.0616
      6 C6         49.4945   23.3633   14.1523 C.ar    1  <0>        -0.0594
      7 C7         48.8534   21.1825   14.9830 C.ar    1  <0>        -0.0594
      8 C8         48.2369   23.8821   14.2399 C.ar    1  <0>        -0.0318
      9 C9         47.4333   21.8346   15.0799 C.ar    1  <0>        -0.0318
     10 C10        42.0199   29.0821    7.9604 C.3     1  <0>        -0.0430
     11 C11        40.1667   28.1242   11.2732 C.3     1  <0>        -0.0178
     12 C12        43.3722   26.2518   13.8607 C.3     1  <0>         0.0097
     13 C13        43.7484   24.3830   15.7789 C.3     1  <0>         0.1306
     14 C14        44.3563   27.4503    9.5804 C.2     1  <0>        -0.0232
     15 C15        45.7449   25.3920   12.5006 C.2     1  <0>         0.0519
     16 C16        37.3416   29.6721   10.1381 C.3     1  <0>         0.1052
     17 C17        47.0974   23.1927   14.6897 C.ar    1  <0>         0.0908
     18 C18        40.6047   29.5083    7.6372 C.3     1  <0>        -0.0071
     19 C19        41.8822   28.2579    9.3155 C.3     1  <0>        -0.0209
     20 C20        41.3050   27.8385   12.2340 C.3     1  <0>         0.0608
     21 C21        43.1057   28.1042   10.2660 C.3     1  <0>         0.0089
     22 C22        42.5864   27.2197   11.5188 C.3     1  <0>         0.0113
     23 C23        45.3342   26.6274   10.3847 C.2     1  <0>         0.0239
     24 C24        44.0345   25.2439   14.4506 C.2     1  <0>         0.0444
     25 C25        45.0157   26.4075   11.9219 C.2     1  <0>         0.0437
     26 C26        45.3033   24.7347   13.8394 C.2     1  <0>         0.1604
     27 C27        38.4267   29.9260    9.0562 C.2     1  <0>         0.1904
     28 C28        40.6192   28.9748   10.0049 C.3     1  <0>         0.0101
     29 C29        43.7415   27.0013   12.5843 C.3     1  <0>         0.0340
     30 C30        39.6714   28.9639    8.8102 C.3     1  <0>         0.1340
     31 N1         45.0750   23.5538   15.6082 N.2     1  <0>        -0.1299
     32 N2         46.0264   23.8540   14.7562 N.pl3   1  <0>        -0.1199
     33 O1         36.9381   30.8477   10.8224 O.3     1  <0>        -0.3874
     34 O2         41.5879   29.0680   12.9010 O.3     1  <0>        -0.3914
     35 O3         39.2244   27.6011    8.4687 O.3     1  <0>        -0.3802
     36 O4         38.2840   30.9308    8.3711 O.2     1  <0>        -0.2919
     37 H1         39.2302   29.1699    6.0119 H       1  <0>         0.0233
     38 H2         40.9578   29.2512    5.5271 H       1  <0>         0.0233
     39 H3         40.3273   27.7921    6.3641 H       1  <0>         0.0233
     40 H4         47.0731   25.5005   10.4755 H       1  <0>         0.0339
     41 H5         46.1501   25.3850    8.9389 H       1  <0>         0.0339
     42 H6         47.0920   26.8686    9.3116 H       1  <0>         0.0339
     43 H7         41.3731   31.0359    9.5172 H       1  <0>         0.0236
     44 H8         40.2236   30.9996   10.8969 H       1  <0>         0.0236
     45 H9         41.9140   30.4343   11.1209 H       1  <0>         0.0236
     46 H10        44.7058   28.9930   12.4482 H       1  <0>         0.0243
     47 H11        43.6117   28.8089   13.8607 H       1  <0>         0.0243
     48 H12        45.2287   28.0265   13.8690 H       1  <0>         0.0243
     49 H13        50.9742   21.6385   14.3752 H       1  <0>         0.0618
     50 H14        50.2557   24.0397   13.7927 H       1  <0>         0.0618
     51 H15        49.0096   20.1555   15.2786 H       1  <0>         0.0618
     52 H16        48.1047   24.9105   13.9380 H       1  <0>         0.0642
     53 H17        46.6346   21.2217   15.4708 H       1  <0>         0.0642
     54 H18        42.4421   28.4604    7.1571 H       1  <0>         0.0272
     55 H19        42.6790   29.9533    8.0891 H       1  <0>         0.0272
     56 H20        39.7646   27.1635   10.9190 H       1  <0>         0.0297
     57 H21        39.3943   28.6924   11.8123 H       1  <0>         0.0297
     58 H22        42.3879   25.8173   13.6317 H       1  <0>         0.0382
     59 H23        43.3577   27.0386   14.6294 H       1  <0>         0.0382
     60 H24        43.6656   24.9609   16.7113 H       1  <0>         0.0706
     61 H25        42.8175   23.7970   15.7741 H       1  <0>         0.0706
     62 H26        44.5196   27.5903    8.5220 H       1  <0>         0.0961
     63 H27        46.6439   25.0443   12.0135 H       1  <0>         0.1094
     64 H28        36.4578   29.2437    9.6429 H       1  <0>         0.0637
     65 H29        37.7532   28.9696   10.8777 H       1  <0>         0.0637
     66 H30        40.4767   30.5986    7.5681 H       1  <0>         0.0330
     67 H31        41.7749   27.1881    9.0828 H       1  <0>         0.0317
     68 H32        41.0091   27.0627   12.9555 H       1  <0>         0.0597
     69 H33        43.4611   29.0967   10.5803 H       1  <0>         0.0408
     70 H34        42.2890   26.2486   11.0963 H       1  <0>         0.0349
     71 H35        37.7062   31.3179   11.1249 H       1  <0>         0.2100
     72 H36        42.5189   29.1239   13.0815 H       1  <0>         0.2098
     73 H37        38.7174   27.2440    9.1884 H       1  <0>         0.2108
@<TRIPOS>BOND
     1     1    18    1
     2     2    23    1
     3     3    28    1
     4     4    29    1
     5     5     6   ar
     6     5     7   ar
     7     6     8   ar
     8     7     9   ar
     9     8    17   ar
    10     9    17   ar
    11    10    18    1
    12    10    19    1
    13    11    20    1
    14    11    28    1
    15    12    24    1
    16    12    29    1
    17    13    24    1
    18    13    31    1
    19    14    21    1
    20    14    23    2
    21    15    25    2
    22    15    26    1
    23    16    27    1
    24    16    33    1
    25    17    32    1
    26    18    30    1
    27    19    21    1
    28    19    28    1
    29    20    22    1
    30    20    34    1
    31    21    22    1
    32    22    29    1
    33    23    25    1
    34    24    26    2
    35    25    29    1
    36    26    32    1
    37    27    30    1
    38    27    36    2
    39    28    30    1
    40    30    35    1
    41    31    32    2
    42     1    37    1
    43     1    38    1
    44     1    39    1
    45     2    40    1
    46     2    41    1
    47     2    42    1
    48     3    43    1
    49     3    44    1
    50     3    45    1
    51     4    46    1
    52     4    47    1
    53     4    48    1
    54     5    49    1
    55     6    50    1
    56     7    51    1
    57     8    52    1
    58     9    53    1
    59    10    54    1
    60    10    55    1
    61    11    56    1
    62    11    57    1
    63    12    58    1
    64    12    59    1
    65    13    60    1
    66    13    61    1
    67    14    62    1
    68    15    63    1
    69    16    64    1
    70    16    65    1
    71    18    66    1
    72    19    67    1
    73    20    68    1
    74    21    69    1
    75    22    70    1
    76    33    71    1
    77    34    72    1
    78    35    73    1
@<TRIPOS>SUBSTRUCTURE
     1 <0>         1 TEMP              0 ****  ****    0 ROOT

