
##########                                Name:        DAY_301_3BQD
##########                    Molecular_Weight:             489.635
##########                DOCK_Rotatable_Bonds:                   6
##########                       Formal_Charge:              0.9995
##########                     HBond_Acceptors:                   6
##########                        HBond_Donors:                   3
##########                         Heavy_Atoms:                  36
##########                            HA_RMSDs:              18.712
##########                            HA_RMSDh:              18.290
##########                            HA_RMSDm:              17.275
##########                          Grid_Score:          -59.373615
##########                     Grid_vdw_energy:          -23.203655
##########                      Grid_es_energy:          -36.169960
##########           Internal_energy_repulsive:           59.220932

@<TRIPOS>MOLECULE
DAY_301_3BQD
 73 78 1 0 0
SMALL
USER_CHARGES


@<TRIPOS>ATOM
      1 C1         48.4355   16.4760   10.0113 C.3     1  <0>        -0.0594
      2 C2         51.1114   17.6093   17.0926 C.3     1  <0>        -0.0132
      3 C3         52.7419   17.7511   10.2676 C.3     1  <0>        -0.0561
      4 C4         54.5238   19.4067   14.4728 C.3     1  <0>        -0.0493
      5 C5         53.2263   21.5508   22.6115 C.ar    1  <0>        -0.0616
      6 C6         53.4809   20.6592   21.4468 C.ar    1  <0>        -0.0594
      7 C7         53.0562   22.9283   22.1733 C.ar    1  <0>        -0.0594
      8 C8         53.5410   20.9828   20.1238 C.ar    1  <0>        -0.0318
      9 C9         53.1531   23.2462   20.6433 C.ar    1  <0>        -0.0318
     10 C10        50.3044   16.6200   11.5672 C.3     1  <0>        -0.0430
     11 C11        51.7670   20.1723   10.8130 C.3     1  <0>        -0.0178
     12 C12        53.5201   21.5333   14.7565 C.3     1  <0>         0.0097
     13 C13        53.9926   23.7488   16.2334 C.3     1  <0>         0.1306
     14 C14        51.2228   17.6080   14.5548 C.2     1  <0>        -0.0232
     15 C15        52.6255   20.1217   17.0859 C.2     1  <0>         0.0519
     16 C16        50.7789   19.7799    7.4330 C.3     1  <0>         0.1052
     17 C17        53.3775   22.2725   19.5892 C.ar    1  <0>         0.0908
     18 C18        49.9213   16.7912   10.1136 C.3     1  <0>        -0.0071
     19 C19        50.8187   18.0601   12.0100 C.3     1  <0>        -0.0209
     20 C20        52.6435   20.4468   12.0200 C.3     1  <0>         0.0608
     21 C21        51.7880   18.2074   13.2195 C.3     1  <0>         0.0089
     22 C22        52.0848   19.7929   13.3603 C.3     1  <0>         0.0113
     23 C23        51.6216   18.1892   15.8903 C.2     1  <0>         0.0239
     24 C24        53.5608   22.2357   15.8999 C.2     1  <0>         0.0444
     25 C25        52.5795   19.4522   15.8828 C.2     1  <0>         0.0437
     26 C26        53.1422   21.5857   17.1825 C.2     1  <0>         0.1604
     27 C27        50.6551   18.4266    8.1852 C.2     1  <0>         0.1904
     28 C28        51.4202   18.6283   10.6318 C.3     1  <0>         0.0101
     29 C29        53.0853   20.0848   14.5564 C.3     1  <0>         0.0340
     30 C30        50.2434   18.3022    9.7184 C.3     1  <0>         0.1340
     31 N1         53.7386   23.5528   17.7741 N.2     1  <0>        -0.1299
     32 N2         53.5235   22.3903   18.3428 N.pl3   1  <0>        -0.1199
     33 O1         51.8109   19.7944    6.4596 O.3     1  <0>        -0.3874
     34 O2         53.9498   19.9806   11.6840 O.3     1  <0>        -0.3914
     35 O3         49.0628   19.1337   10.0159 O.3     1  <0>        -0.3802
     36 O4         50.8928   17.4193    7.5309 O.2     1  <0>        -0.2919
     37 H1         48.1076   16.5872    8.9672 H       1  <0>         0.0233
     38 H2         48.2563   15.4428   10.3437 H       1  <0>         0.0233
     39 H3         47.8688   17.1701   10.6493 H       1  <0>         0.0233
     40 H4         51.5053   18.1580   17.9609 H       1  <0>         0.0339
     41 H5         50.0130   17.6672   17.0901 H       1  <0>         0.0339
     42 H6         51.4231   16.5560   17.1525 H       1  <0>         0.0339
     43 H7         52.4605   16.6941   10.1511 H       1  <0>         0.0236
     44 H8         53.1790   18.1197    9.3278 H       1  <0>         0.0236
     45 H9         53.4799   17.8467   11.0777 H       1  <0>         0.0236
     46 H10        54.4107   18.3227   14.3243 H       1  <0>         0.0243
     47 H11        55.0827   19.8359   13.6281 H       1  <0>         0.0243
     48 H12        55.0719   19.5934   15.4080 H       1  <0>         0.0243
     49 H13        53.1750   21.2213   23.6387 H       1  <0>         0.0618
     50 H14        53.6392   19.6169   21.6812 H       1  <0>         0.0618
     51 H15        52.8670   23.7149   22.8887 H       1  <0>         0.0618
     52 H16        53.7304   20.1797   19.4271 H       1  <0>         0.0642
     53 H17        53.0436   24.2787   20.3461 H       1  <0>         0.0642
     54 H18        49.4423   16.3015   12.1716 H       1  <0>         0.0272
     55 H19        51.0926   15.8618   11.6850 H       1  <0>         0.0272
     56 H20        50.8244   20.7255   10.9380 H       1  <0>         0.0297
     57 H21        52.3005   20.5142    9.9139 H       1  <0>         0.0297
     58 H22        52.8224   22.1038   14.1257 H       1  <0>         0.0382
     59 H23        54.5636   21.5421   14.4086 H       1  <0>         0.0382
     60 H24        55.0202   24.0229   15.9522 H       1  <0>         0.0706
     61 H25        53.3920   24.5324   15.7485 H       1  <0>         0.0706
     62 H26        50.5413   16.7710   14.5185 H       1  <0>         0.0961
     63 H27        52.2952   19.6186   17.9826 H       1  <0>         0.1094
     64 H28        49.8243   19.9769    6.9231 H       1  <0>         0.0637
     65 H29        50.9950   20.5645    8.1731 H       1  <0>         0.0637
     66 H30        50.4721   16.1278    9.4306 H       1  <0>         0.0330
     67 H31        49.9854   18.6248   12.4537 H       1  <0>         0.0317
     68 H32        52.6594   21.5240   12.2425 H       1  <0>         0.0597
     69 H33        52.7060   17.6303   13.0345 H       1  <0>         0.0408
     70 H34        51.1125   20.2613   13.5729 H       1  <0>         0.0349
     71 H35        52.1076   18.9064    6.2988 H       1  <0>         0.2100
     72 H36        54.5021   20.0005   12.4567 H       1  <0>         0.2098
     73 H37        49.2730   20.0480    9.8666 H       1  <0>         0.2108
@<TRIPOS>BOND
     1     1    18    1
     2     2    23    1
     3     3    28    1
     4     4    29    1
     5     5     6   ar
     6     5     7   ar
     7     6     8   ar
     8     7     9   ar
     9     8    17   ar
    10     9    17   ar
    11    10    18    1
    12    10    19    1
    13    11    20    1
    14    11    28    1
    15    12    24    1
    16    12    29    1
    17    13    24    1
    18    13    31    1
    19    14    21    1
    20    14    23    2
    21    15    25    2
    22    15    26    1
    23    16    27    1
    24    16    33    1
    25    17    32    1
    26    18    30    1
    27    19    21    1
    28    19    28    1
    29    20    22    1
    30    20    34    1
    31    21    22    1
    32    22    29    1
    33    23    25    1
    34    24    26    2
    35    25    29    1
    36    26    32    1
    37    27    30    1
    38    27    36    2
    39    28    30    1
    40    30    35    1
    41    31    32    2
    42     1    37    1
    43     1    38    1
    44     1    39    1
    45     2    40    1
    46     2    41    1
    47     2    42    1
    48     3    43    1
    49     3    44    1
    50     3    45    1
    51     4    46    1
    52     4    47    1
    53     4    48    1
    54     5    49    1
    55     6    50    1
    56     7    51    1
    57     8    52    1
    58     9    53    1
    59    10    54    1
    60    10    55    1
    61    11    56    1
    62    11    57    1
    63    12    58    1
    64    12    59    1
    65    13    60    1
    66    13    61    1
    67    14    62    1
    68    15    63    1
    69    16    64    1
    70    16    65    1
    71    18    66    1
    72    19    67    1
    73    20    68    1
    74    21    69    1
    75    22    70    1
    76    33    71    1
    77    34    72    1
    78    35    73    1
@<TRIPOS>SUBSTRUCTURE
     1 <0>         1 TEMP              0 ****  ****    0 ROOT

