Z4361714899
 OpenBabel06102414302D

 24 26  0  0  0  0  0  0  0  0999 V2000
    4.1401    8.8680    0.0000 O   0  0  0  0  0  0  0  0  0  0  0  0
    3.6754    8.1864    0.0000 C   0  0  0  0  0  0  0  0  0  0  0  0
    2.8527    8.2480    0.0000 O   0  0  0  0  0  0  0  0  0  0  0  0
    4.0333    7.4431    0.0000 C   0  0  3  0  0  0  0  0  0  0  0  0
    4.8583    7.4431    0.0000 C   0  0  0  0  0  0  0  0  0  0  0  0
    5.3727    6.7981    0.0000 C   0  0  0  0  0  0  0  0  0  0  0  0
    5.1891    5.9937    0.0000 C   0  0  0  0  0  0  0  0  0  0  0  0
    4.4458    5.6358    0.0000 C   0  0  3  0  0  0  0  0  0  0  0  0
    3.7025    5.9937    0.0000 C   0  0  0  0  0  0  0  0  0  0  0  0
    3.5190    6.7981    0.0000 C   0  0  0  0  0  0  0  0  0  0  0  0
    4.4458    4.8108    0.0000 N   0  0  0  0  0  0  0  0  0  0  0  0
    3.7314    4.3983    0.0000 C   0  0  0  0  0  0  0  0  0  0  0  0
    3.0169    4.8108    0.0000 O   0  0  0  0  0  0  0  0  0  0  0  0
    3.7314    3.5733    0.0000 C   0  0  0  0  0  0  0  0  0  0  0  0
    4.3988    3.0883    0.0000 C   0  0  0  0  0  0  0  0  0  0  0  0
    4.1439    2.3037    0.0000 S   0  0  0  0  0  0  0  0  0  0  0  0
    3.3189    2.3037    0.0000 C   0  0  0  0  0  0  0  0  0  0  0  0
    3.0639    3.0883    0.0000 C   0  0  0  0  0  0  0  0  0  0  0  0
    2.8339    1.6363    0.0000 C   0  0  0  0  0  0  0  0  0  0  0  0
    3.1695    0.8826    0.0000 C   0  0  0  0  0  0  0  0  0  0  0  0
    2.6846    0.2152    0.0000 C   0  0  0  0  0  0  0  0  0  0  0  0
    1.8641    0.3014    0.0000 C   0  0  0  0  0  0  0  0  0  0  0  0
    1.5286    1.0551    0.0000 C   0  0  0  0  0  0  0  0  0  0  0  0
    2.0135    1.7225    0.0000 C   0  0  0  0  0  0  0  0  0  0  0  0
  1  2  1  0  0  0  0
  2  3  2  0  0  0  0
  2  4  1  0  0  0  0
  4  5  1  0  0  0  0
  4 10  1  0  0  0  0
  5  6  1  0  0  0  0
  6  7  1  0  0  0  0
  7  8  1  0  0  0  0
  8  9  1  0  0  0  0
  8 11  1  0  0  0  0
  9 10  1  0  0  0  0
 11 12  1  0  0  0  0
 12 13  2  0  0  0  0
 12 14  1  0  0  0  0
 14 15  2  0  0  0  0
 14 18  1  0  0  0  0
 15 16  1  0  0  0  0
 16 17  1  0  0  0  0
 17 18  2  0  0  0  0
 17 19  1  0  0  0  0
 19 20  1  0  0  0  0
 19 24  1  0  0  0  0
 20 21  1  0  0  0  0
 21 22  1  0  0  0  0
 22 23  1  0  0  0  0
 23 24  1  0  0  0  0
M  END
$$$$
