Z4361714947
 OpenBabel06102414302D

 26 30  0  0  0  0  0  0  0  0999 V2000
   28.8701  -21.3319    0.0000 O   0  0  0  0  0  0  0  0  0  0  0  0
   27.4028  -21.6437    0.0000 C   0  0  0  0  0  0  0  0  0  0  0  0
   26.9394  -23.0703    0.0000 O   0  0  0  0  0  0  0  0  0  0  0  0
   26.3992  -20.5290    0.0000 C   0  0  3  0  0  0  0  0  0  0  0  0
   24.9319  -20.8410    0.0000 C   0  0  0  0  0  0  0  0  0  0  0  0
   23.9282  -19.7262    0.0000 C   0  0  0  0  0  0  0  0  0  0  0  0
   24.3917  -18.2995    0.0000 C   0  0  3  0  0  0  0  0  0  0  0  0
   22.8939  -18.2211    0.0000 C   0  0  0  0  0  0  0  0  0  0  0  0
   22.9722  -16.7231    0.0000 C   0  0  3  0  0  0  0  0  0  0  0  0
   24.4702  -16.8016    0.0000 C   0  0  0  0  0  0  0  0  0  0  0  0
   21.9686  -15.6084    0.0000 N   0  0  0  0  0  0  0  0  0  0  0  0
   22.4320  -14.1818    0.0000 C   0  0  0  0  0  0  0  0  0  0  0  0
   21.4284  -13.0672    0.0000 C   0  0  0  0  0  0  0  0  0  0  0  0
   21.8918  -11.6406    0.0000 C   0  0  0  0  0  0  0  0  0  0  0  0
   20.6784  -10.7588    0.0000 S   0  0  0  0  0  0  0  0  0  0  0  0
   19.4647  -11.6406    0.0000 C   0  0  0  0  0  0  0  0  0  0  0  0
   19.9283  -13.0672    0.0000 C   0  0  0  0  0  0  0  0  0  0  0  0
   18.9247  -14.1818    0.0000 C   0  0  0  0  0  0  0  0  0  0  0  0
   17.4574  -13.8698    0.0000 C   0  0  0  0  0  0  0  0  0  0  0  0
   16.9939  -12.4434    0.0000 C   0  0  0  0  0  0  0  0  0  0  0  0
   17.9976  -11.3286    0.0000 C   0  0  0  0  0  0  0  0  0  0  0  0
   23.3591  -11.3286    0.0000 N   0  0  0  0  0  0  0  0  0  0  0  0
   24.3628  -12.4434    0.0000 C   0  0  0  0  0  0  0  0  0  0  0  0
   23.8993  -13.8698    0.0000 N   0  0  0  0  0  0  0  0  0  0  0  0
   25.8590  -17.9877    0.0000 C   0  0  0  0  0  0  0  0  0  0  0  0
   26.8626  -19.1024    0.0000 C   0  0  0  0  0  0  0  0  0  0  0  0
  1  2  1  0  0  0  0
  2  3  2  0  0  0  0
  2  4  1  0  0  0  0
  4  5  1  0  0  0  0
  4 26  1  0  0  0  0
  5  6  1  0  0  0  0
  6  7  1  0  0  0  0
  7  8  1  0  0  0  0
  7 10  1  0  0  0  0
  7 25  1  0  0  0  0
  8  9  1  0  0  0  0
  9 10  1  0  0  0  0
  9 11  1  0  0  0  0
 11 12  1  0  0  0  0
 12 13  2  0  0  0  0
 12 24  1  0  0  0  0
 13 14  1  0  0  0  0
 13 17  1  0  0  0  0
 14 15  1  0  0  0  0
 14 22  2  0  0  0  0
 15 16  1  0  0  0  0
 16 17  2  0  0  0  0
 16 21  1  0  0  0  0
 17 18  1  0  0  0  0
 18 19  1  0  0  0  0
 19 20  1  0  0  0  0
 20 21  1  0  0  0  0
 22 23  1  0  0  0  0
 23 24  2  0  0  0  0
 25 26  1  0  0  0  0
M  END
$$$$
