Z4647716459
 OpenBabel06102414322D

 26 30  0  0  0  0  0  0  0  0999 V2000
   26.9394   -5.9193    0.0000 O   0  0  0  0  0  0  0  0  0  0  0  0
   27.4028   -7.3459    0.0000 C   0  0  0  0  0  0  0  0  0  0  0  0
   28.8701   -7.6577    0.0000 O   0  0  0  0  0  0  0  0  0  0  0  0
   26.3992   -8.4606    0.0000 C   0  0  3  0  0  0  0  0  0  0  0  0
   26.8626   -9.8872    0.0000 C   0  0  0  0  0  0  0  0  0  0  0  0
   25.8590  -11.0019    0.0000 C   0  0  0  0  0  0  0  0  0  0  0  0
   24.3917  -10.6901    0.0000 C   0  0  3  0  0  0  0  0  0  0  0  0
   24.4702  -12.1880    0.0000 C   0  0  0  0  0  0  0  0  0  0  0  0
   22.9722  -12.2665    0.0000 C   0  0  3  0  0  0  0  0  0  0  0  0
   22.8939  -10.7685    0.0000 C   0  0  0  0  0  0  0  0  0  0  0  0
   21.9686  -13.3813    0.0000 N   0  0  0  0  0  0  0  0  0  0  0  0
   22.4320  -14.8078    0.0000 C   0  0  0  0  0  0  0  0  0  0  0  0
   23.8993  -15.1198    0.0000 N   0  0  0  0  0  0  0  0  0  0  0  0
   24.3628  -16.5464    0.0000 C   0  0  0  0  0  0  0  0  0  0  0  0
   23.3591  -17.6610    0.0000 N   0  0  0  0  0  0  0  0  0  0  0  0
   21.8918  -17.3490    0.0000 C   0  0  0  0  0  0  0  0  0  0  0  0
   21.4284  -15.9226    0.0000 C   0  0  0  0  0  0  0  0  0  0  0  0
   19.9283  -15.9226    0.0000 C   0  0  0  0  0  0  0  0  0  0  0  0
   19.4647  -17.3490    0.0000 C   0  0  0  0  0  0  0  0  0  0  0  0
   20.6784  -18.2308    0.0000 N   0  0  0  0  0  0  0  0  0  0  0  0
   17.9976  -17.6610    0.0000 C   0  0  0  0  0  0  0  0  0  0  0  0
   16.9939  -16.5464    0.0000 C   0  0  0  0  0  0  0  0  0  0  0  0
   17.4574  -15.1198    0.0000 C   0  0  0  0  0  0  0  0  0  0  0  0
   18.9247  -14.8078    0.0000 C   0  0  0  0  0  0  0  0  0  0  0  0
   23.9282   -9.2634    0.0000 C   0  0  0  0  0  0  0  0  0  0  0  0
   24.9319   -8.1486    0.0000 C   0  0  0  0  0  0  0  0  0  0  0  0
  1  2  1  0  0  0  0
  2  3  2  0  0  0  0
  2  4  1  0  0  0  0
  4  5  1  0  0  0  0
  4 26  1  0  0  0  0
  5  6  1  0  0  0  0
  6  7  1  0  0  0  0
  7  8  1  0  0  0  0
  7 10  1  0  0  0  0
  7 25  1  0  0  0  0
  8  9  1  0  0  0  0
  9 10  1  0  0  0  0
  9 11  1  0  0  0  0
 11 12  1  0  0  0  0
 12 13  2  0  0  0  0
 12 17  1  0  0  0  0
 13 14  1  0  0  0  0
 14 15  2  0  0  0  0
 15 16  1  0  0  0  0
 16 17  2  0  0  0  0
 16 20  1  0  0  0  0
 17 18  1  0  0  0  0
 18 19  2  0  0  0  0
 18 24  1  0  0  0  0
 19 20  1  0  0  0  0
 19 21  1  0  0  0  0
 21 22  2  0  0  0  0
 22 23  1  0  0  0  0
 23 24  2  0  0  0  0
 25 26  1  0  0  0  0
M  END
$$$$
