
##########                                Name:      189_A1001_1XL2
##########                    Molecular_Weight:             578.796
##########                DOCK_Rotatable_Bonds:                  14
##########                       Formal_Charge:                   1
##########                     HBond_Acceptors:                   8
##########                        HBond_Donors:                   2
##########                         Heavy_Atoms:                  41
##########                            HA_RMSDs:               0.409
##########                            HA_RMSDh:               0.409
##########                            HA_RMSDm:               0.409
##########                          Grid_Score:          -93.286865
##########                     Grid_vdw_energy:          -33.210781
##########                      Grid_es_energy:          -60.076080
##########           Internal_energy_repulsive:           48.657101

@<TRIPOS>MOLECULE
189_A1001_1XL2
 85 88 1 0 0
SMALL
USER_CHARGES


@<TRIPOS>ATOM
      1 C1         15.9313   -2.4260   20.7921 C.3     1  <0>        -0.0373
      2 C2         20.4713   -0.4673   22.0302 C.3     1  <0>        -0.0373
      3 C3         21.1610   -6.0550   14.5439 C.3     1  <0>        -0.0612
      4 C4         22.9666   -6.1367   12.8111 C.3     1  <0>        -0.0612
      5 C5         14.4418   -5.1262   18.6398 C.ar    1  <0>        -0.0617
      6 C6         25.7318   -1.2573   19.3579 C.ar    1  <0>        -0.0616
      7 C7         14.5580   -3.9924   17.8320 C.ar    1  <0>        -0.0615
      8 C8         15.5648   -5.9179   18.8990 C.ar    1  <0>        -0.0615
      9 C9         26.1546   -2.3077   18.5408 C.ar    1  <0>        -0.0599
     10 C10        24.3688   -1.0047   19.5366 C.ar    1  <0>        -0.0599
     11 C11        17.6502   -1.9346   24.1317 C.ar    1  <0>        -0.0611
     12 C12        15.7925   -3.6244   17.2878 C.ar    1  <0>        -0.0571
     13 C13        16.7982   -5.5460   18.3569 C.ar    1  <0>        -0.0571
     14 C14        25.2129   -3.1017   17.8736 C.ar    1  <0>        -0.0351
     15 C15        23.4238   -1.8106   18.8980 C.ar    1  <0>        -0.0351
     16 C16        16.7419   -2.3357   23.1504 C.ar    1  <0>        -0.0564
     17 C17        18.7765   -1.2017   23.7515 C.ar    1  <0>        -0.0564
     18 C18        20.0079   -1.5794   13.4878 C.3     1  <0>        -0.0288
     19 C19        21.0073   -0.1872   15.1614 C.3     1  <0>        -0.0288
     20 C20        18.2904   -4.0175   17.0077 C.3     1  <0>         0.0398
     21 C21        18.5718   -1.9452   15.5155 C.3     1  <0>         0.0232
     22 C22        22.3791   -2.2848   15.0903 C.3     1  <0>         0.0378
     23 C23        23.2165   -4.5655   14.7632 C.3     1  <0>         0.0319
     24 C24        18.8800   -2.2909   19.2458 C.3     1  <0>         0.1304
     25 C25        17.0096   -2.0433   21.8031 C.ar    1  <0>        -0.0202
     26 C26        19.1397   -1.1061   22.4113 C.ar    1  <0>        -0.0202
     27 C27        16.9178   -4.3974   17.5684 C.ar    1  <0>        -0.0301
     28 C28        23.8558   -2.8451   18.0623 C.ar    1  <0>         0.1084
     29 C29        18.2109   -1.4522   21.4136 C.ar    1  <0>         0.0826
     30 C30        19.8980   -2.3131   14.8360 C.3     1  <0>         0.0240
     31 C31        21.0618   -1.6600   15.6273 C.3     1  <0>         0.0252
     32 C32        22.2307   -5.2311   13.7975 C.3     1  <0>        -0.0296
     33 C33        18.5462   -1.8405   17.8366 C.2     1  <0>         0.2422
     34 N1         20.3514   -0.1832   13.8459 N.4     1  <0>         0.2275
     35 N2         18.4474   -2.6006   16.8164 N.am    1  <0>        -0.2948
     36 N3         22.5137   -3.6383   15.6513 N.pl3   1  <0>        -0.2334
     37 O1         18.4627   -0.6106   17.7330 O.2     1  <0>        -0.2730
     38 O2         23.1729   -5.2127   17.4644 O.2     1  <0>        -0.1501
     39 O3         21.3964   -3.5333   17.9474 O.2     1  <0>        -0.1501
     40 O4         18.5667   -1.1943   20.1033 O.3     1  <0>        -0.3350
     41 S1         22.6418   -3.8694   17.2266 S.o2    1  <0>         0.0706
     42 H1         15.2376   -1.5829   20.6583 H       1  <0>         0.0278
     43 H2         16.4024   -2.6696   19.8284 H       1  <0>         0.0278
     44 H3         15.3772   -3.3016   21.1612 H       1  <0>         0.0278
     45 H4         21.2387   -1.2491   21.9313 H       1  <0>         0.0278
     46 H5         20.3627    0.0628   21.0725 H       1  <0>         0.0278
     47 H6         20.7729    0.2455   22.8118 H       1  <0>         0.0278
     48 H7         20.6285   -5.4067   15.2554 H       1  <0>         0.0233
     49 H8         20.4450   -6.4688   13.8185 H       1  <0>         0.0233
     50 H9         21.6466   -6.8772   15.0899 H       1  <0>         0.0233
     51 H10        23.7306   -5.5530   12.2764 H       1  <0>         0.0233
     52 H11        23.4504   -6.9588   13.3589 H       1  <0>         0.0233
     53 H12        22.2487   -6.5504   12.0876 H       1  <0>         0.0233
     54 H13        13.4846   -5.3912   19.0640 H       1  <0>         0.0618
     55 H14        26.4625   -0.6363   19.8548 H       1  <0>         0.0618
     56 H15        13.6838   -3.3928   17.6253 H       1  <0>         0.0618
     57 H16        15.4803   -6.8046   19.5098 H       1  <0>         0.0618
     58 H17        27.2093   -2.5083   18.4231 H       1  <0>         0.0618
     59 H18        24.0473   -0.1885   20.1667 H       1  <0>         0.0618
     60 H19        17.4844   -2.1871   25.1686 H       1  <0>         0.0618
     61 H20        15.8730   -2.7513   16.6574 H       1  <0>         0.0621
     62 H21        17.6702   -6.1535   18.5494 H       1  <0>         0.0621
     63 H22        25.5338   -3.9012   17.2222 H       1  <0>         0.0637
     64 H23        22.3686   -1.6364   19.0484 H       1  <0>         0.0637
     65 H24        15.8419   -2.8660   23.4246 H       1  <0>         0.0621
     66 H25        19.3708   -0.7047   24.5040 H       1  <0>         0.0621
     67 H26        20.7872   -2.0289   12.8550 H       1  <0>         0.0817
     68 H27        19.0582   -1.6239   12.9345 H       1  <0>         0.0817
     69 H28        20.4341    0.4203   15.8774 H       1  <0>         0.0817
     70 H29        22.0229    0.2283   15.0846 H       1  <0>         0.0817
     71 H30        19.0594   -4.3577   17.7168 H       1  <0>         0.0514
     72 H31        18.4150   -4.5136   16.0338 H       1  <0>         0.0514
     73 H32        18.5351   -0.8554   15.6600 H       1  <0>         0.0469
     74 H33        17.7398   -2.2678   14.8723 H       1  <0>         0.0469
     75 H34        22.3465   -2.3376   13.9921 H       1  <0>         0.0483
     76 H35        23.2366   -1.6673   15.3957 H       1  <0>         0.0483
     77 H36        23.7091   -5.3411   15.3679 H       1  <0>         0.0480
     78 H37        23.9696   -4.0104   14.1847 H       1  <0>         0.0480
     79 H38        18.2861   -3.1756   19.5186 H       1  <0>         0.0662
     80 H39        19.9461   -2.5503   19.3254 H       1  <0>         0.0662
     81 H40        19.9389   -3.4099   14.7621 H       1  <0>         0.0373
     82 H41        21.0029   -1.7825   16.7189 H       1  <0>         0.0373
     83 H42        21.7259   -4.4218   13.2497 H       1  <0>         0.0311
     84 H43        20.9701    0.2000   13.1601 H       1  <0>         0.2014
     85 H44        19.5200    0.3712   13.8837 H       1  <0>         0.2014
@<TRIPOS>BOND
     1     1    25    1
     2     2    26    1
     3     3    32    1
     4     4    32    1
     5     5     7   ar
     6     5     8   ar
     7     6     9   ar
     8     6    10   ar
     9     7    12   ar
    10     8    13   ar
    11     9    14   ar
    12    10    15   ar
    13    11    16   ar
    14    11    17   ar
    15    12    27   ar
    16    13    27   ar
    17    14    28   ar
    18    15    28   ar
    19    16    25   ar
    20    17    26   ar
    21    18    30    1
    22    18    34    1
    23    19    31    1
    24    19    34    1
    25    20    27    1
    26    20    35    1
    27    21    30    1
    28    21    35    1
    29    22    31    1
    30    22    36    1
    31    23    32    1
    32    23    36    1
    33    24    33    1
    34    24    40    1
    35    25    29   ar
    36    26    29   ar
    37    28    41    1
    38    29    40    1
    39    30    31    1
    40    33    35   am
    41    33    37    2
    42    36    41    1
    43    38    41    2
    44    39    41    2
    45     1    42    1
    46     1    43    1
    47     1    44    1
    48     2    45    1
    49     2    46    1
    50     2    47    1
    51     3    48    1
    52     3    49    1
    53     3    50    1
    54     4    51    1
    55     4    52    1
    56     4    53    1
    57     5    54    1
    58     6    55    1
    59     7    56    1
    60     8    57    1
    61     9    58    1
    62    10    59    1
    63    11    60    1
    64    12    61    1
    65    13    62    1
    66    14    63    1
    67    15    64    1
    68    16    65    1
    69    17    66    1
    70    18    67    1
    71    18    68    1
    72    19    69    1
    73    19    70    1
    74    20    71    1
    75    20    72    1
    76    21    73    1
    77    21    74    1
    78    22    75    1
    79    22    76    1
    80    23    77    1
    81    23    78    1
    82    24    79    1
    83    24    80    1
    84    30    81    1
    85    31    82    1
    86    32    83    1
    87    34    84    1
    88    34    85    1
@<TRIPOS>SUBSTRUCTURE
     1 <0>         1 TEMP              0 ****  ****    0 ROOT

