
##########                                Name:        Y27_416_2ETR
##########                    Molecular_Weight:             248.348
##########                DOCK_Rotatable_Bonds:                   4
##########                       Formal_Charge:              1.0001
##########                     HBond_Acceptors:                   4
##########                        HBond_Donors:                   4
##########                         Heavy_Atoms:                  18
##########                            HA_RMSDs:               0.579
##########                            HA_RMSDh:               0.579
##########                            HA_RMSDm:               0.579
##########                          Grid_Score:         -113.139618
##########                     Grid_vdw_energy:          -39.711704
##########                      Grid_es_energy:          -73.427910
##########           Internal_energy_repulsive:           10.018623

@<TRIPOS>MOLECULE
Y27_416_2ETR
 40 41 1 0 0
SMALL
USER_CHARGES


@<TRIPOS>ATOM
      1 C1         55.1394  103.1442   34.2046 C.3     1  <0>        -0.0215
      2 C2         50.8475   98.5403   27.7917 C.ar    1  <0>        -0.0223
      3 C3         50.8876  100.6158   26.5910 C.ar    1  <0>        -0.0223
      4 C4         50.4834   97.8932   26.6118 C.ar    1  <0>         0.0293
      5 C5         50.5184   99.9189   25.4388 C.ar    1  <0>         0.0293
      6 C6         52.0801  103.5552   32.6566 C.3     1  <0>        -0.0444
      7 C7         54.2596  103.0166   31.4879 C.3     1  <0>        -0.0444
      8 C8         51.3347  103.2292   31.3607 C.3     1  <0>        -0.0415
      9 C9         53.4798  102.6981   30.2090 C.3     1  <0>        -0.0415
     10 C10        51.0519   99.9196   27.7923 C.ar    1  <0>         0.0363
     11 C11        53.5223  104.0120   32.3981 C.3     1  <0>         0.0017
     12 C12        52.0820  102.1729   30.5416 C.3     1  <0>         0.0359
     13 C13        54.2672  104.3011   33.7111 C.3     1  <0>        -0.0244
     14 C14        51.3275  101.8052   29.2888 C.2     1  <0>         0.2203
     15 N1         55.0940  105.4845   33.5654 N.4     1  <0>         0.2207
     16 N2         50.3268   98.5888   25.4743 N.ar    1  <0>        -0.2631
     17 N3         51.4128  100.5094   28.9634 N.am    1  <0>        -0.2852
     18 O1         50.6985  102.6462   28.6598 O.2     1  <0>        -0.2752
     19 H1         55.6343  103.4322   35.1438 H       1  <0>         0.0284
     20 H2         54.5100  102.2590   34.3784 H       1  <0>         0.0284
     21 H3         55.9007  102.9097   33.4460 H       1  <0>         0.0284
     22 H4         50.9709   97.9745   28.7033 H       1  <0>         0.0651
     23 H5         51.0449  101.6837   26.5546 H       1  <0>         0.0651
     24 H6         50.3263   96.8247   26.6127 H       1  <0>         0.0830
     25 H7         50.3856  100.4537   24.5100 H       1  <0>         0.0830
     26 H8         51.5443  104.3641   33.1747 H       1  <0>         0.0270
     27 H9         52.1062  102.6509   33.2823 H       1  <0>         0.0270
     28 H10        54.4098  102.0806   32.0458 H       1  <0>         0.0270
     29 H11        55.2277  103.4556   31.2047 H       1  <0>         0.0270
     30 H12        50.3356  102.8438   31.6120 H       1  <0>         0.0273
     31 H13        51.2449  104.1470   30.7611 H       1  <0>         0.0273
     32 H14        53.3849  103.6151   29.6089 H       1  <0>         0.0273
     33 H15        54.0245  101.9316   29.6382 H       1  <0>         0.0273
     34 H16        53.4912  104.9678   31.8546 H       1  <0>         0.0355
     35 H17        52.1688  101.2537   31.1395 H       1  <0>         0.0394
     36 H18        53.4836  104.4547   34.4676 H       1  <0>         0.0850
     37 H19        54.5324  106.2465   33.2431 H       1  <0>         0.1997
     38 H20        55.4984  105.7193   34.4494 H       1  <0>         0.1997
     39 H21        55.8213  105.3033   32.9035 H       1  <0>         0.1997
     40 H22        51.7863   99.9028   29.6651 H       1  <0>         0.1548
@<TRIPOS>BOND
     1     1    13    1
     2     2     4   ar
     3     2    10   ar
     4     3     5   ar
     5     3    10   ar
     6     4    16   ar
     7     5    16   ar
     8     6     8    1
     9     6    11    1
    10     7     9    1
    11     7    11    1
    12     8    12    1
    13     9    12    1
    14    10    17    1
    15    11    13    1
    16    12    14    1
    17    13    15    1
    18    14    17   am
    19    14    18    2
    20     1    19    1
    21     1    20    1
    22     1    21    1
    23     2    22    1
    24     3    23    1
    25     4    24    1
    26     5    25    1
    27     6    26    1
    28     6    27    1
    29     7    28    1
    30     7    29    1
    31     8    30    1
    32     8    31    1
    33     9    32    1
    34     9    33    1
    35    11    34    1
    36    12    35    1
    37    13    36    1
    38    15    37    1
    39    15    38    1
    40    15    39    1
    41    17    40    1
@<TRIPOS>SUBSTRUCTURE
     1 <0>         1 TEMP              0 ****  ****    0 ROOT

