
##########                                Name:        Y27_416_2ETR
##########                    Molecular_Weight:             248.348
##########                DOCK_Rotatable_Bonds:                   4
##########                       Formal_Charge:              1.0001
##########                     HBond_Acceptors:                   4
##########                        HBond_Donors:                   4
##########                         Heavy_Atoms:                  18
##########                            HA_RMSDs:               0.509
##########                            HA_RMSDh:               0.509
##########                            HA_RMSDm:               0.509
##########                          Grid_Score:         -113.034813
##########                     Grid_vdw_energy:          -39.662994
##########                      Grid_es_energy:          -73.371819
##########           Internal_energy_repulsive:           10.398334

@<TRIPOS>MOLECULE
Y27_416_2ETR
 40 41 1 0 0
SMALL
USER_CHARGES


@<TRIPOS>ATOM
      1 C1         54.9857  103.1135   34.2612 C.3     1  <0>        -0.0215
      2 C2         50.9070   98.4978   27.7807 C.ar    1  <0>        -0.0223
      3 C3         50.5735  100.6239   26.7225 C.ar    1  <0>        -0.0223
      4 C4         50.5467   97.8748   26.5867 C.ar    1  <0>         0.0293
      5 C5         50.2170   99.9494   25.5531 C.ar    1  <0>         0.0293
      6 C6         51.9231  103.5501   32.7460 C.3     1  <0>        -0.0444
      7 C7         54.0680  102.9273   31.5552 C.3     1  <0>        -0.0444
      8 C8         51.1463  103.2005   31.4750 C.3     1  <0>        -0.0415
      9 C9         53.2572  102.5865   30.3015 C.3     1  <0>        -0.0415
     10 C10        50.9211   99.8899   27.8605 C.ar    1  <0>         0.0363
     11 C11        53.3697  103.9667   32.4469 C.3     1  <0>         0.0017
     12 C12        51.8550  102.1029   30.6761 C.3     1  <0>         0.0359
     13 C13        54.1454  104.2801   33.7362 C.3     1  <0>        -0.0244
     14 C14        51.0692  101.7130   29.4495 C.2     1  <0>         0.2203
     15 N1         55.0095  105.4277   33.5321 N.4     1  <0>         0.2207
     16 N2         50.2116   98.6057   25.5116 N.ar    1  <0>        -0.2631
     17 N3         51.2854  100.4563   29.0420 N.am    1  <0>        -0.2852
     18 O1         50.3056  102.5034   28.9103 O.2     1  <0>        -0.2752
     19 H1         55.5055  103.4200   35.1809 H       1  <0>         0.0284
     20 H2         54.3295  102.2580   34.4788 H       1  <0>         0.0284
     21 H3         55.7261  102.8239   33.5009 H       1  <0>         0.0284
     22 H4         51.1746   97.9036   28.6418 H       1  <0>         0.0651
     23 H5         50.5807  101.7036   26.7477 H       1  <0>         0.0651
     24 H6         50.5370   96.7966   26.5261 H       1  <0>         0.0830
     25 H7         49.9430  100.5126   24.6733 H       1  <0>         0.0830
     26 H8         51.4147  104.3864   33.2481 H       1  <0>         0.0270
     27 H9         51.9416  102.6655   33.3995 H       1  <0>         0.0270
     28 H10        54.2085  102.0061   32.1396 H       1  <0>         0.0270
     29 H11        55.0397  103.3358   31.2406 H       1  <0>         0.0270
     30 H12        50.1441  102.8453   31.7566 H       1  <0>         0.0273
     31 H13        51.0650  104.1009   30.8484 H       1  <0>         0.0273
     32 H14        53.1708  103.4862   29.6746 H       1  <0>         0.0273
     33 H15        53.7744  101.7907   29.7453 H       1  <0>         0.0273
     34 H16        53.3488  104.9055   31.8741 H       1  <0>         0.0355
     35 H17        51.9334  101.2011   31.3010 H       1  <0>         0.0394
     36 H18        53.3800  104.4896   34.4979 H       1  <0>         0.0850
     37 H19        54.4688  106.1957   33.1888 H       1  <0>         0.1997
     38 H20        55.4361  105.6821   34.4000 H       1  <0>         0.1997
     39 H21        55.7192  105.1961   32.8668 H       1  <0>         0.1997
     40 H22        51.7730   99.8634   29.6828 H       1  <0>         0.1548
@<TRIPOS>BOND
     1     1    13    1
     2     2     4   ar
     3     2    10   ar
     4     3     5   ar
     5     3    10   ar
     6     4    16   ar
     7     5    16   ar
     8     6     8    1
     9     6    11    1
    10     7     9    1
    11     7    11    1
    12     8    12    1
    13     9    12    1
    14    10    17    1
    15    11    13    1
    16    12    14    1
    17    13    15    1
    18    14    17   am
    19    14    18    2
    20     1    19    1
    21     1    20    1
    22     1    21    1
    23     2    22    1
    24     3    23    1
    25     4    24    1
    26     5    25    1
    27     6    26    1
    28     6    27    1
    29     7    28    1
    30     7    29    1
    31     8    30    1
    32     8    31    1
    33     9    32    1
    34     9    33    1
    35    11    34    1
    36    12    35    1
    37    13    36    1
    38    15    37    1
    39    15    38    1
    40    15    39    1
    41    17    40    1
@<TRIPOS>SUBSTRUCTURE
     1 <0>         1 TEMP              0 ****  ****    0 ROOT

