
##########                                Name:        Y27_416_2ETR
##########                    Molecular_Weight:             248.348
##########                DOCK_Rotatable_Bonds:                   4
##########                       Formal_Charge:              1.0001
##########                     HBond_Acceptors:                   4
##########                        HBond_Donors:                   4
##########                         Heavy_Atoms:                  18
##########                            HA_RMSDs:               0.732
##########                            HA_RMSDh:               0.732
##########                            HA_RMSDm:               0.732
##########                          Grid_Score:         -109.747467
##########                     Grid_vdw_energy:          -38.682903
##########                      Grid_es_energy:          -71.064560
##########           Internal_energy_repulsive:           13.079065

@<TRIPOS>MOLECULE
Y27_416_2ETR
 40 41 1 0 0
SMALL
USER_CHARGES


@<TRIPOS>ATOM
      1 C1         54.4272  102.5374   34.3110 C.3     1  <0>        -0.0215
      2 C2         50.7864   98.6918   27.0708 C.ar    1  <0>        -0.0223
      3 C3         49.9615  100.8652   26.4817 C.ar    1  <0>        -0.0223
      4 C4         50.3287   98.2127   25.8442 C.ar    1  <0>         0.0293
      5 C5         49.5195  100.3328   25.2689 C.ar    1  <0>         0.0293
      6 C6         52.0270  103.1539   32.5619 C.3     1  <0>        -0.0444
      7 C7         54.0472  102.6313   31.1293 C.3     1  <0>        -0.0444
      8 C8         51.1346  102.9309   31.3392 C.3     1  <0>        -0.0415
      9 C9         53.1226  102.4156   29.9277 C.3     1  <0>        -0.0415
     10 C10        50.6029  100.0332   27.4044 C.ar    1  <0>         0.0363
     11 C11        53.4473  103.5869   32.1734 C.3     1  <0>         0.0017
     12 C12        51.7522  101.9085   30.3808 C.3     1  <0>         0.0359
     13 C13        54.3398  103.7722   33.4109 C.3     1  <0>        -0.0244
     14 C14        50.8541  101.6412   29.1993 C.2     1  <0>         0.2203
     15 N1         55.6796  104.1554   33.0068 N.4     1  <0>         0.2207
     16 N2         49.7106   99.0338   24.9805 N.ar    1  <0>        -0.2631
     17 N3         51.0709  100.4600   28.6078 N.am    1  <0>        -0.2852
     18 O1         50.0089  102.4553   28.8508 O.2     1  <0>        -0.2752
     19 H1         55.0816  102.7535   35.1684 H       1  <0>         0.0284
     20 H2         53.4221  102.2764   34.6737 H       1  <0>         0.0284
     21 H3         54.8406  101.6944   33.7377 H       1  <0>         0.0284
     22 H4         51.2820   98.0254   27.7612 H       1  <0>         0.0651
     23 H5         49.8092  101.9108   26.7052 H       1  <0>         0.0651
     24 H6         50.4723   97.1737   25.5870 H       1  <0>         0.0830
     25 H7         49.0191  100.9709   24.5556 H       1  <0>         0.0830
     26 H8         51.5784  103.9427   33.1835 H       1  <0>         0.0270
     27 H9         52.0902  102.2116   33.1257 H       1  <0>         0.0270
     28 H10        54.2252  101.6583   31.6102 H       1  <0>         0.0270
     29 H11        54.9930  103.0609   30.7676 H       1  <0>         0.0270
     30 H12        50.1562  102.5576   31.6759 H       1  <0>         0.0273
     31 H13        51.0114  103.8868   30.8091 H       1  <0>         0.0273
     32 H14        52.9943  103.3709   29.3978 H       1  <0>         0.0273
     33 H15        53.5758  101.6722   29.2554 H       1  <0>         0.0273
     34 H16        53.3897  104.5756   31.6948 H       1  <0>         0.0355
     35 H17        51.8723  100.9513   30.9094 H       1  <0>         0.0394
     36 H18        53.8615  104.5656   34.0039 H       1  <0>         0.0850
     37 H19        55.6327  104.9621   32.4178 H       1  <0>         0.1997
     38 H20        56.2248  104.3665   33.8182 H       1  <0>         0.1997
     39 H21        56.1050  103.4015   32.5061 H       1  <0>         0.1997
     40 H22        51.6455   99.8145   29.1109 H       1  <0>         0.1548
@<TRIPOS>BOND
     1     1    13    1
     2     2     4   ar
     3     2    10   ar
     4     3     5   ar
     5     3    10   ar
     6     4    16   ar
     7     5    16   ar
     8     6     8    1
     9     6    11    1
    10     7     9    1
    11     7    11    1
    12     8    12    1
    13     9    12    1
    14    10    17    1
    15    11    13    1
    16    12    14    1
    17    13    15    1
    18    14    17   am
    19    14    18    2
    20     1    19    1
    21     1    20    1
    22     1    21    1
    23     2    22    1
    24     3    23    1
    25     4    24    1
    26     5    25    1
    27     6    26    1
    28     6    27    1
    29     7    28    1
    30     7    29    1
    31     8    30    1
    32     8    31    1
    33     9    32    1
    34     9    33    1
    35    11    34    1
    36    12    35    1
    37    13    36    1
    38    15    37    1
    39    15    38    1
    40    15    39    1
    41    17    40    1
@<TRIPOS>SUBSTRUCTURE
     1 <0>         1 TEMP              0 ****  ****    0 ROOT

