
##########                                Name:        Y27_416_2ETR
##########                    Molecular_Weight:             248.348
##########                DOCK_Rotatable_Bonds:                   4
##########                       Formal_Charge:              1.0001
##########                     HBond_Acceptors:                   4
##########                        HBond_Donors:                   4
##########                         Heavy_Atoms:                  18
##########                            HA_RMSDs:               0.394
##########                            HA_RMSDh:               0.394
##########                            HA_RMSDm:               0.394
##########                          Grid_Score:         -112.344032
##########                     Grid_vdw_energy:          -39.290771
##########                      Grid_es_energy:          -73.053261
##########           Internal_energy_repulsive:           10.286022

@<TRIPOS>MOLECULE
Y27_416_2ETR
 40 41 1 0 0
SMALL
USER_CHARGES


@<TRIPOS>ATOM
      1 C1         54.8432  103.0320   34.2860 C.3     1  <0>        -0.0215
      2 C2         50.9137   98.4286   27.7090 C.ar    1  <0>        -0.0223
      3 C3         50.7324  100.5316   26.5707 C.ar    1  <0>        -0.0223
      4 C4         50.5328   97.7866   26.5316 C.ar    1  <0>         0.0293
      5 C5         50.3517   99.8388   25.4198 C.ar    1  <0>         0.0293
      6 C6         52.0019  103.2155   32.7383 C.3     1  <0>        -0.0444
      7 C7         54.1291  103.2027   31.3668 C.3     1  <0>        -0.0444
      8 C8         51.2128  102.8842   31.4699 C.3     1  <0>        -0.0415
      9 C9         53.3065  102.8707   30.1185 C.3     1  <0>        -0.0415
     10 C10        51.0152   99.8190   27.7399 C.ar    1  <0>         0.0363
     11 C11        53.3124  103.9528   32.4313 C.3     1  <0>         0.0017
     12 C12        52.0582  102.0675   30.4882 C.3     1  <0>         0.0359
     13 C13        54.1089  104.2463   33.7127 C.3     1  <0>        -0.0244
     14 C14        51.2715  101.6895   29.2585 C.2     1  <0>         0.2203
     15 N1         55.0700  105.3061   33.4709 N.4     1  <0>         0.2207
     16 N2         50.2613   98.4976   25.4257 N.ar    1  <0>        -0.2631
     17 N3         51.3967  100.4039   28.9068 N.am    1  <0>        -0.2852
     18 O1         50.5850  102.5140   28.6690 O.2     1  <0>        -0.2752
     19 H1         55.3852  103.3269   35.1967 H       1  <0>         0.0284
     20 H2         54.1146  102.2455   34.5316 H       1  <0>         0.0284
     21 H3         55.5577  102.6507   33.5416 H       1  <0>         0.0284
     22 H4         51.1297   97.8504   28.5951 H       1  <0>         0.0651
     23 H5         50.8079  101.6089   26.5579 H       1  <0>         0.0651
     24 H6         50.4554   96.7096   26.5090 H       1  <0>         0.0830
     25 H7         50.1275  100.3859   24.5160 H       1  <0>         0.0830
     26 H8         51.3805  103.8581   33.3792 H       1  <0>         0.0270
     27 H9         52.2421  102.2755   33.2565 H       1  <0>         0.0270
     28 H10        54.4906  102.2610   31.8056 H       1  <0>         0.0270
     29 H11        54.9758  103.8377   31.0667 H       1  <0>         0.0270
     30 H12        50.3235  102.2990   31.7464 H       1  <0>         0.0273
     31 H13        50.9100  103.8232   30.9834 H       1  <0>         0.0273
     32 H14        52.9988  103.8080   29.6320 H       1  <0>         0.0273
     33 H15        53.9245  102.2763   29.4294 H       1  <0>         0.0273
     34 H16        53.0654  104.9344   32.0007 H       1  <0>         0.0355
     35 H17        52.3582  101.1267   30.9729 H       1  <0>         0.0394
     36 H18        53.3625  104.5502   34.4614 H       1  <0>         0.0850
     37 H19        54.5991  106.1046   33.0958 H       1  <0>         0.1997
     38 H20        55.5147  105.5553   34.3313 H       1  <0>         0.1997
     39 H21        55.7588  104.9889   32.8190 H       1  <0>         0.1997
     40 H22        51.8214   99.8018   29.5829 H       1  <0>         0.1548
@<TRIPOS>BOND
     1     1    13    1
     2     2     4   ar
     3     2    10   ar
     4     3     5   ar
     5     3    10   ar
     6     4    16   ar
     7     5    16   ar
     8     6     8    1
     9     6    11    1
    10     7     9    1
    11     7    11    1
    12     8    12    1
    13     9    12    1
    14    10    17    1
    15    11    13    1
    16    12    14    1
    17    13    15    1
    18    14    17   am
    19    14    18    2
    20     1    19    1
    21     1    20    1
    22     1    21    1
    23     2    22    1
    24     3    23    1
    25     4    24    1
    26     5    25    1
    27     6    26    1
    28     6    27    1
    29     7    28    1
    30     7    29    1
    31     8    30    1
    32     8    31    1
    33     9    32    1
    34     9    33    1
    35    11    34    1
    36    12    35    1
    37    13    36    1
    38    15    37    1
    39    15    38    1
    40    15    39    1
    41    17    40    1
@<TRIPOS>SUBSTRUCTURE
     1 <0>         1 TEMP              0 ****  ****    0 ROOT

