
##########                                Name:        Y27_416_2ETR
##########                    Molecular_Weight:             248.348
##########                DOCK_Rotatable_Bonds:                   4
##########                       Formal_Charge:              1.0001
##########                     HBond_Acceptors:                   4
##########                        HBond_Donors:                   4
##########                         Heavy_Atoms:                  18
##########                            HA_RMSDs:               0.682
##########                            HA_RMSDh:               0.682
##########                            HA_RMSDm:               0.682
##########                          Grid_Score:         -111.453285
##########                     Grid_vdw_energy:          -40.713554
##########                      Grid_es_energy:          -70.739731
##########           Internal_energy_repulsive:            9.316815

@<TRIPOS>MOLECULE
Y27_416_2ETR
 40 41 1 0 0
SMALL
USER_CHARGES


@<TRIPOS>ATOM
      1 C1         54.6070  102.8572   34.7356 C.3     1  <0>        -0.0215
      2 C2         50.9930   98.6824   27.5857 C.ar    1  <0>        -0.0223
      3 C3         50.7080  100.9049   26.7309 C.ar    1  <0>        -0.0223
      4 C4         50.5683   98.1815   26.3560 C.ar    1  <0>         0.0293
      5 C5         50.2859  100.3503   25.5209 C.ar    1  <0>         0.0293
      6 C6         52.1127  103.1540   33.0498 C.3     1  <0>        -0.0444
      7 C7         54.1523  103.0142   31.5576 C.3     1  <0>        -0.0444
      8 C8         51.2351  102.8425   31.8358 C.3     1  <0>        -0.0415
      9 C9         53.2423  102.7040   30.3655 C.3     1  <0>        -0.0415
     10 C10        51.0647  100.0604   27.7866 C.ar    1  <0>         0.0363
     11 C11        53.4372  103.8205   32.6537 C.3     1  <0>         0.0017
     12 C12        51.9804  101.9696   30.8220 C.3     1  <0>         0.0359
     13 C13        54.3212  104.0942   33.8809 C.3     1  <0>        -0.0244
     14 C14        51.1051  101.6119   29.6472 C.2     1  <0>         0.2203
     15 N1         55.5817  104.6812   33.4667 N.4     1  <0>         0.2207
     16 N2         50.2261   99.0168   25.3622 N.ar    1  <0>        -0.2631
     17 N3         51.4907  100.5060   28.9988 N.am    1  <0>        -0.2852
     18 O1         50.1328  102.2946   29.3524 O.2     1  <0>        -0.2752
     19 H1         55.2424  103.1388   35.5883 H       1  <0>         0.0284
     20 H2         53.6588  102.4411   35.1068 H       1  <0>         0.0284
     21 H3         55.1252  102.1022   34.1260 H       1  <0>         0.0284
     22 H4         51.2659   98.0047   28.3810 H       1  <0>         0.0651
     23 H5         50.7585  101.9771   26.8502 H       1  <0>         0.0651
     24 H6         50.5141   97.1140   26.2016 H       1  <0>         0.0830
     25 H7         50.0047  100.9991   24.7047 H       1  <0>         0.0830
     26 H8         51.5622  103.8367   33.7138 H       1  <0>         0.0270
     27 H9         52.3371  102.2115   33.5706 H       1  <0>         0.0270
     28 H10        54.4928  102.0628   31.9920 H       1  <0>         0.0270
     29 H11        55.0096  103.6016   31.1970 H       1  <0>         0.0270
     30 H12        50.3362  102.3065   32.1744 H       1  <0>         0.0273
     31 H13        50.9501  103.7876   31.3504 H       1  <0>         0.0273
     32 H14        52.9524  103.6477   29.8804 H       1  <0>         0.0273
     33 H15        53.7889  102.0689   29.6528 H       1  <0>         0.0273
     34 H16        53.2132  104.8063   32.2199 H       1  <0>         0.0355
     35 H17        52.2624  101.0228   31.3058 H       1  <0>         0.0394
     36 H18        53.7464  104.7901   34.5096 H       1  <0>         0.0850
     37 H19        55.4051  105.4910   32.9072 H       1  <0>         0.1997
     38 H20        56.1087  104.9435   34.2752 H       1  <0>         0.1997
     39 H21        56.1005  104.0138   32.9325 H       1  <0>         0.1997
     40 H22        52.1734   99.9400   29.4609 H       1  <0>         0.1548
@<TRIPOS>BOND
     1     1    13    1
     2     2     4   ar
     3     2    10   ar
     4     3     5   ar
     5     3    10   ar
     6     4    16   ar
     7     5    16   ar
     8     6     8    1
     9     6    11    1
    10     7     9    1
    11     7    11    1
    12     8    12    1
    13     9    12    1
    14    10    17    1
    15    11    13    1
    16    12    14    1
    17    13    15    1
    18    14    17   am
    19    14    18    2
    20     1    19    1
    21     1    20    1
    22     1    21    1
    23     2    22    1
    24     3    23    1
    25     4    24    1
    26     5    25    1
    27     6    26    1
    28     6    27    1
    29     7    28    1
    30     7    29    1
    31     8    30    1
    32     8    31    1
    33     9    32    1
    34     9    33    1
    35    11    34    1
    36    12    35    1
    37    13    36    1
    38    15    37    1
    39    15    38    1
    40    15    39    1
    41    17    40    1
@<TRIPOS>SUBSTRUCTURE
     1 <0>         1 TEMP              0 ****  ****    0 ROOT

