
##########                                Name:        Y27_416_2ETR
##########                    Molecular_Weight:             248.348
##########                DOCK_Rotatable_Bonds:                   4
##########                       Formal_Charge:              1.0001
##########                     HBond_Acceptors:                   4
##########                        HBond_Donors:                   4
##########                         Heavy_Atoms:                  18
##########                            HA_RMSDs:               0.511
##########                            HA_RMSDh:               0.511
##########                            HA_RMSDm:               0.511
##########                          Grid_Score:         -112.471786
##########                     Grid_vdw_energy:          -40.515392
##########                      Grid_es_energy:          -71.956390
##########           Internal_energy_repulsive:           11.841025

@<TRIPOS>MOLECULE
Y27_416_2ETR
 40 41 1 0 0
SMALL
USER_CHARGES


@<TRIPOS>ATOM
      1 C1         54.7908  103.0260   34.4759 C.3     1  <0>        -0.0215
      2 C2         51.0705   98.3397   27.8871 C.ar    1  <0>        -0.0223
      3 C3         50.3915  100.4299   26.9273 C.ar    1  <0>        -0.0223
      4 C4         50.7175   97.7064   26.6964 C.ar    1  <0>         0.0293
      5 C5         50.0507   99.7454   25.7590 C.ar    1  <0>         0.0293
      6 C6         51.8284  103.3100   32.9486 C.3     1  <0>        -0.0444
      7 C7         53.9793  102.9561   31.6623 C.3     1  <0>        -0.0444
      8 C8         51.0440  102.9450   31.6865 C.3     1  <0>        -0.0415
      9 C9         53.1610  102.5957   30.4191 C.3     1  <0>        -0.0415
     10 C10        50.9067   99.7185   28.0151 C.ar    1  <0>         0.0363
     11 C11        53.2164  103.8797   32.6256 C.3     1  <0>         0.0017
     12 C12        51.8262  101.9602   30.8127 C.3     1  <0>         0.0359
     13 C13        54.0039  104.2077   33.9041 C.3     1  <0>        -0.0244
     14 C14        51.0383  101.5522   29.5934 C.2     1  <0>         0.2203
     15 N1         54.9185  105.3070   33.6584 N.4     1  <0>         0.2207
     16 N2         50.2192   98.4146   25.6705 N.ar    1  <0>        -0.2631
     17 N3         51.2703  100.2966   29.1912 N.am    1  <0>        -0.2852
     18 O1         50.2598  102.3285   29.0549 O.2     1  <0>        -0.2752
     19 H1         55.3227  103.3443   35.3846 H       1  <0>         0.0284
     20 H2         54.0969  102.2096   34.7244 H       1  <0>         0.0284
     21 H3         55.5183  102.6746   33.7294 H       1  <0>         0.0284
     22 H4         51.4700   97.7637   28.7087 H       1  <0>         0.0651
     23 H5         50.2583  101.4998   26.9901 H       1  <0>         0.0651
     24 H6         50.8458   96.6386   26.5985 H       1  <0>         0.0830
     25 H7         49.6477  100.2904   24.9182 H       1  <0>         0.0830
     26 H8         51.2600  104.0683   33.5069 H       1  <0>         0.0270
     27 H9         51.9554  102.4022   33.5565 H       1  <0>         0.0270
     28 H10        54.2289  102.0271   32.1957 H       1  <0>         0.0270
     29 H11        54.8953  103.4720   31.3382 H       1  <0>         0.0270
     30 H12        50.0914  102.4805   31.9812 H       1  <0>         0.0273
     31 H13        50.8538  103.8610   31.1080 H       1  <0>         0.0273
     32 H14        52.9658  103.5106   29.8404 H       1  <0>         0.0273
     33 H15        53.7323  101.8810   29.8084 H       1  <0>         0.0273
     34 H16        53.0846  104.8374   32.1008 H       1  <0>         0.0355
     35 H17        52.0135  101.0425   31.3895 H       1  <0>         0.0394
     36 H18        53.2477  104.4803   34.6550 H       1  <0>         0.0850
     37 H19        54.4130  106.0845   33.2843 H       1  <0>         0.1997
     38 H20        55.3550  105.5755   34.5171 H       1  <0>         0.1997
     39 H21        55.6179  105.0186   33.0045 H       1  <0>         0.1997
     40 H22        51.7706   99.7143   29.8319 H       1  <0>         0.1548
@<TRIPOS>BOND
     1     1    13    1
     2     2     4   ar
     3     2    10   ar
     4     3     5   ar
     5     3    10   ar
     6     4    16   ar
     7     5    16   ar
     8     6     8    1
     9     6    11    1
    10     7     9    1
    11     7    11    1
    12     8    12    1
    13     9    12    1
    14    10    17    1
    15    11    13    1
    16    12    14    1
    17    13    15    1
    18    14    17   am
    19    14    18    2
    20     1    19    1
    21     1    20    1
    22     1    21    1
    23     2    22    1
    24     3    23    1
    25     4    24    1
    26     5    25    1
    27     6    26    1
    28     6    27    1
    29     7    28    1
    30     7    29    1
    31     8    30    1
    32     8    31    1
    33     9    32    1
    34     9    33    1
    35    11    34    1
    36    12    35    1
    37    13    36    1
    38    15    37    1
    39    15    38    1
    40    15    39    1
    41    17    40    1
@<TRIPOS>SUBSTRUCTURE
     1 <0>         1 TEMP              0 ****  ****    0 ROOT

