
##########                                Name:        Y27_416_2ETR
##########                    Molecular_Weight:             248.348
##########                DOCK_Rotatable_Bonds:                   4
##########                       Formal_Charge:              1.0001
##########                     HBond_Acceptors:                   4
##########                        HBond_Donors:                   4
##########                         Heavy_Atoms:                  18
##########                            HA_RMSDs:               0.563
##########                            HA_RMSDh:               0.563
##########                            HA_RMSDm:               0.563
##########                          Grid_Score:         -113.640335
##########                     Grid_vdw_energy:          -40.046307
##########                      Grid_es_energy:          -73.594025
##########           Internal_energy_repulsive:           10.586270

@<TRIPOS>MOLECULE
Y27_416_2ETR
 40 41 1 0 0
SMALL
USER_CHARGES


@<TRIPOS>ATOM
      1 C1         55.0963  103.3347   34.1011 C.3     1  <0>        -0.0215
      2 C2         50.8256   98.6863   27.6573 C.ar    1  <0>        -0.0223
      3 C3         50.6650  100.8188   26.5721 C.ar    1  <0>        -0.0223
      4 C4         50.4897   98.0745   26.4505 C.ar    1  <0>         0.0293
      5 C5         50.3288  100.1556   25.3903 C.ar    1  <0>         0.0293
      6 C6         51.8279  103.6679   32.6768 C.3     1  <0>        -0.0444
      7 C7         54.0049  103.0538   31.5410 C.3     1  <0>        -0.0444
      8 C8         51.0886  103.3458   31.3764 C.3     1  <0>        -0.0415
      9 C9         53.2312  102.7404   30.2571 C.3     1  <0>        -0.0415
     10 C10        50.9144  100.0759   27.7300 C.ar    1  <0>         0.0363
     11 C11        53.2852  104.0811   32.4296 C.3     1  <0>         0.0017
     12 C12        51.8156  102.2585   30.5798 C.3     1  <0>         0.0359
     13 C13        54.0227  104.3666   33.7476 C.3     1  <0>        -0.0244
     14 C14        51.0657  101.8954   29.3229 C.2     1  <0>         0.2203
     15 N1         54.6318  105.6828   33.7034 N.4     1  <0>         0.2207
     16 N2         50.2495   98.8141   25.3561 N.ar    1  <0>        -0.2631
     17 N3         51.2516  100.6309   28.9249 N.am    1  <0>        -0.2852
     18 O1         50.3539  102.7124   28.7531 O.2     1  <0>        -0.2752
     19 H1         55.5729  103.6120   35.0529 H       1  <0>         0.0284
     20 H2         54.6325  102.3422   34.1989 H       1  <0>         0.0284
     21 H3         55.8553  103.3082   33.3053 H       1  <0>         0.0284
     22 H4         51.0166   98.0852   28.5339 H       1  <0>         0.0651
     23 H5         50.7318  101.8966   26.5916 H       1  <0>         0.0651
     24 H6         50.4221   96.9980   26.3955 H       1  <0>         0.0830
     25 H7         50.1305  100.7260   24.4949 H       1  <0>         0.0830
     26 H8         51.3089  104.4980   33.1781 H       1  <0>         0.0270
     27 H9         51.8215  102.7716   33.3143 H       1  <0>         0.0270
     28 H10        54.1225  102.1214   32.1126 H       1  <0>         0.0270
     29 H11        54.9880  103.4621   31.2637 H       1  <0>         0.0270
     30 H12        50.0764  102.9916   31.6207 H       1  <0>         0.0273
     31 H13        51.0314  104.2578   30.7640 H       1  <0>         0.0273
     32 H14        53.1689  103.6517   29.6443 H       1  <0>         0.0273
     33 H15        53.7609  101.9517   29.7026 H       1  <0>         0.0273
     34 H16        53.2870  105.0302   31.8736 H       1  <0>         0.0355
     35 H17        51.8699  101.3452   31.1903 H       1  <0>         0.0394
     36 H18        53.2553  104.3102   34.5337 H       1  <0>         0.0850
     37 H19        53.9373  106.3644   33.4729 H       1  <0>         0.1997
     38 H20        55.0258  105.8978   34.5970 H       1  <0>         0.1997
     39 H21        55.3521  105.6934   33.0099 H       1  <0>         0.1997
     40 H22        51.6910  100.0216   29.5850 H       1  <0>         0.1548
@<TRIPOS>BOND
     1     1    13    1
     2     2     4   ar
     3     2    10   ar
     4     3     5   ar
     5     3    10   ar
     6     4    16   ar
     7     5    16   ar
     8     6     8    1
     9     6    11    1
    10     7     9    1
    11     7    11    1
    12     8    12    1
    13     9    12    1
    14    10    17    1
    15    11    13    1
    16    12    14    1
    17    13    15    1
    18    14    17   am
    19    14    18    2
    20     1    19    1
    21     1    20    1
    22     1    21    1
    23     2    22    1
    24     3    23    1
    25     4    24    1
    26     5    25    1
    27     6    26    1
    28     6    27    1
    29     7    28    1
    30     7    29    1
    31     8    30    1
    32     8    31    1
    33     9    32    1
    34     9    33    1
    35    11    34    1
    36    12    35    1
    37    13    36    1
    38    15    37    1
    39    15    38    1
    40    15    39    1
    41    17    40    1
@<TRIPOS>SUBSTRUCTURE
     1 <0>         1 TEMP              0 ****  ****    0 ROOT

