
##########                                Name:        Y27_416_2ETR
##########                    Molecular_Weight:             248.348
##########                DOCK_Rotatable_Bonds:                   4
##########                       Formal_Charge:              1.0001
##########                     HBond_Acceptors:                   4
##########                        HBond_Donors:                   4
##########                         Heavy_Atoms:                  18
##########                            HA_RMSDs:               0.604
##########                            HA_RMSDh:               0.604
##########                            HA_RMSDm:               0.604
##########                          Grid_Score:         -111.636765
##########                     Grid_vdw_energy:          -41.413235
##########                      Grid_es_energy:          -70.223526
##########           Internal_energy_repulsive:            8.906429

@<TRIPOS>MOLECULE
Y27_416_2ETR
 40 41 1 0 0
SMALL
USER_CHARGES


@<TRIPOS>ATOM
      1 C1         54.4111  102.8824   34.5783 C.3     1  <0>        -0.0215
      2 C2         50.7518   98.7247   27.5455 C.ar    1  <0>        -0.0223
      3 C3         50.7866  100.8933   26.5222 C.ar    1  <0>        -0.0223
      4 C4         50.4363   98.1718   26.3053 C.ar    1  <0>         0.0293
      5 C5         50.4661  100.2883   25.3053 C.ar    1  <0>         0.0293
      6 C6         51.7268  103.5118   32.7734 C.3     1  <0>        -0.0444
      7 C7         53.9108  102.8916   31.6546 C.3     1  <0>        -0.0444
      8 C8         51.0015  103.2283   31.4562 C.3     1  <0>        -0.0415
      9 C9         53.1510  102.6169   30.3536 C.3     1  <0>        -0.0415
     10 C10        50.9287  100.1026   27.6665 C.ar    1  <0>         0.0363
     11 C11        53.1929  103.9096   32.5554 C.3     1  <0>         0.0017
     12 C12        51.7244  102.1483   30.6462 C.3     1  <0>         0.0359
     13 C13        53.9157  104.1561   33.8893 C.3     1  <0>        -0.0244
     14 C14        50.9873  101.8231   29.3715 C.2     1  <0>         0.2203
     15 N1         55.0406  105.0505   33.6892 N.4     1  <0>         0.2207
     16 N2         50.3000   98.9568   25.2248 N.ar    1  <0>        -0.2631
     17 N3         51.2424  100.5991   28.8931 N.am    1  <0>        -0.2852
     18 O1         50.2258  102.6321   28.8576 O.2     1  <0>        -0.2752
     19 H1         54.9138  103.1463   35.5204 H       1  <0>         0.0284
     20 H2         53.5556  102.2245   34.7912 H       1  <0>         0.0284
     21 H3         55.1198  102.3606   33.9184 H       1  <0>         0.0284
     22 H4         50.8591   98.0873   28.4107 H       1  <0>         0.0651
     23 H5         50.9236  101.9631   26.5792 H       1  <0>         0.0651
     24 H6         50.3005   97.1043   26.2130 H       1  <0>         0.0830
     25 H7         50.3505  100.8962   24.4201 H       1  <0>         0.0830
     26 H8         51.2123  104.3382   33.2855 H       1  <0>         0.0270
     27 H9         51.6990  102.6021   33.3911 H       1  <0>         0.0270
     28 H10        54.0074  101.9455   32.2073 H       1  <0>         0.0270
     29 H11        54.9033  103.2918   31.3998 H       1  <0>         0.0270
     30 H12        49.9810  102.8833   31.6788 H       1  <0>         0.0273
     31 H13        50.9655  104.1540   30.8631 H       1  <0>         0.0273
     32 H14        53.1099  103.5421   29.7600 H       1  <0>         0.0273
     33 H15        53.6775  101.8329   29.7895 H       1  <0>         0.0273
     34 H16        53.2157  104.8703   32.0202 H       1  <0>         0.0355
     35 H17        51.7575  101.2213   31.2374 H       1  <0>         0.0394
     36 H18        53.1636  104.6062   34.5539 H       1  <0>         0.0850
     37 H19        54.7264  105.8864   33.2392 H       1  <0>         0.1997
     38 H20        55.4448  105.2806   34.5745 H       1  <0>         0.1997
     39 H21        55.7259  104.6010   33.1163 H       1  <0>         0.1997
     40 H22        51.7207   99.9755   29.5114 H       1  <0>         0.1548
@<TRIPOS>BOND
     1     1    13    1
     2     2     4   ar
     3     2    10   ar
     4     3     5   ar
     5     3    10   ar
     6     4    16   ar
     7     5    16   ar
     8     6     8    1
     9     6    11    1
    10     7     9    1
    11     7    11    1
    12     8    12    1
    13     9    12    1
    14    10    17    1
    15    11    13    1
    16    12    14    1
    17    13    15    1
    18    14    17   am
    19    14    18    2
    20     1    19    1
    21     1    20    1
    22     1    21    1
    23     2    22    1
    24     3    23    1
    25     4    24    1
    26     5    25    1
    27     6    26    1
    28     6    27    1
    29     7    28    1
    30     7    29    1
    31     8    30    1
    32     8    31    1
    33     9    32    1
    34     9    33    1
    35    11    34    1
    36    12    35    1
    37    13    36    1
    38    15    37    1
    39    15    38    1
    40    15    39    1
    41    17    40    1
@<TRIPOS>SUBSTRUCTURE
     1 <0>         1 TEMP              0 ****  ****    0 ROOT

