
##########                                Name:        Y27_416_2ETR
##########                    Molecular_Weight:             248.348
##########                DOCK_Rotatable_Bonds:                   4
##########                       Formal_Charge:              1.0001
##########                     HBond_Acceptors:                   4
##########                        HBond_Donors:                   4
##########                         Heavy_Atoms:                  18
##########                            HA_RMSDs:               0.524
##########                            HA_RMSDh:               0.524
##########                            HA_RMSDm:               0.524
##########                          Grid_Score:         -112.859894
##########                     Grid_vdw_energy:          -41.686977
##########                      Grid_es_energy:          -71.172920
##########           Internal_energy_repulsive:           12.347250

@<TRIPOS>MOLECULE
Y27_416_2ETR
 40 41 1 0 0
SMALL
USER_CHARGES


@<TRIPOS>ATOM
      1 C1         54.3627  102.9099   34.4968 C.3     1  <0>        -0.0215
      2 C2         51.1158   98.5015   27.5891 C.ar    1  <0>        -0.0223
      3 C3         50.0394  100.4702   26.7423 C.ar    1  <0>        -0.0223
      4 C4         50.7642   97.8348   26.4163 C.ar    1  <0>         0.0293
      5 C5         49.7097   99.7545   25.5896 C.ar    1  <0>         0.0293
      6 C6         51.8768  103.4686   32.5678 C.3     1  <0>        -0.0444
      7 C7         54.0843  102.9136   31.4609 C.3     1  <0>        -0.0444
      8 C8         51.1677  103.1662   31.2462 C.3     1  <0>        -0.0415
      9 C9         53.3403  102.6190   30.1552 C.3     1  <0>        -0.0415
     10 C10        50.7510   99.8358   27.7651 C.ar    1  <0>         0.0363
     11 C11        53.3321  103.9090   32.3589 C.3     1  <0>         0.0017
     12 C12        51.9262  102.1088   30.4389 C.3     1  <0>         0.0359
     13 C13        54.0398  104.1743   33.6973 C.3     1  <0>        -0.0244
     14 C14        51.2062  101.7643   29.1595 C.2     1  <0>         0.2203
     15 N1         55.2667  104.9160   33.4743 N.4     1  <0>         0.2207
     16 N2         50.0751   98.4680   25.4538 N.ar    1  <0>        -0.2631
     17 N3         51.1203  100.4498   28.9210 N.am    1  <0>        -0.2852
     18 O1         50.7485  102.6395   28.4363 O.2     1  <0>        -0.2752
     19 H1         54.8653  103.1871   35.4352 H       1  <0>         0.0284
     20 H2         53.4304  102.3727   34.7253 H       1  <0>         0.0284
     21 H3         55.0244  102.2607   33.9046 H       1  <0>         0.0284
     22 H4         51.6694   97.9857   28.3596 H       1  <0>         0.0651
     23 H5         49.7472  101.5050   26.8431 H       1  <0>         0.0651
     24 H6         51.0482   96.8017   26.2810 H       1  <0>         0.0830
     25 H7         49.1558  100.2394   24.7994 H       1  <0>         0.0830
     26 H8         51.3357  104.2790   33.0781 H       1  <0>         0.0270
     27 H9         51.8719  102.5575   33.1841 H       1  <0>         0.0270
     28 H10        54.2051  101.9699   32.0129 H       1  <0>         0.0270
     29 H11        55.0662  103.3427   31.2124 H       1  <0>         0.0270
     30 H12        50.1564  102.7914   31.4623 H       1  <0>         0.0273
     31 H13        51.1083  104.0914   30.6541 H       1  <0>         0.0273
     32 H14        53.2759  103.5434   29.5626 H       1  <0>         0.0273
     33 H15        53.8925  101.8514   29.5931 H       1  <0>         0.0273
     34 H16        53.3301  104.8708   31.8252 H       1  <0>         0.0355
     35 H17        51.9827  101.1823   31.0291 H       1  <0>         0.0394
     36 H18        53.3264  104.7578   34.2979 H       1  <0>         0.0850
     37 H19        55.0656  105.7448   32.9521 H       1  <0>         0.1997
     38 H20        55.6693  105.1666   34.3548 H       1  <0>         0.1997
     39 H21        55.9111  104.3479   32.9625 H       1  <0>         0.1997
     40 H22        51.3558   99.8476   29.6837 H       1  <0>         0.1548
@<TRIPOS>BOND
     1     1    13    1
     2     2     4   ar
     3     2    10   ar
     4     3     5   ar
     5     3    10   ar
     6     4    16   ar
     7     5    16   ar
     8     6     8    1
     9     6    11    1
    10     7     9    1
    11     7    11    1
    12     8    12    1
    13     9    12    1
    14    10    17    1
    15    11    13    1
    16    12    14    1
    17    13    15    1
    18    14    17   am
    19    14    18    2
    20     1    19    1
    21     1    20    1
    22     1    21    1
    23     2    22    1
    24     3    23    1
    25     4    24    1
    26     5    25    1
    27     6    26    1
    28     6    27    1
    29     7    28    1
    30     7    29    1
    31     8    30    1
    32     8    31    1
    33     9    32    1
    34     9    33    1
    35    11    34    1
    36    12    35    1
    37    13    36    1
    38    15    37    1
    39    15    38    1
    40    15    39    1
    41    17    40    1
@<TRIPOS>SUBSTRUCTURE
     1 <0>         1 TEMP              0 ****  ****    0 ROOT

