
##########                                Name:        NOC_434_1LI4
##########                    Molecular_Weight:             263.256
##########                DOCK_Rotatable_Bonds:                   4
##########                       Formal_Charge:        -0.000100121
##########                     HBond_Acceptors:                   8
##########                        HBond_Donors:                   4
##########                         Heavy_Atoms:                  19
##########                            HA_RMSDs:               0.613
##########                            HA_RMSDh:               0.613
##########                            HA_RMSDm:               0.613
##########                          Grid_Score:          -50.957596
##########                     Grid_vdw_energy:          -51.494789
##########                      Grid_es_energy:            0.537193
##########           Internal_energy_repulsive:            4.654198

@<TRIPOS>MOLECULE
NOC_434_1LI4
 32 34 1 0 0
SMALL
USER_CHARGES


@<TRIPOS>ATOM
      1 C1         48.9814  -22.4134  102.7490 C.ar    1  <0>         0.1203
      2 C2         46.6826  -19.3891  100.4970 C.2     1  <0>         0.0904
      3 C3         44.4544  -19.2734  102.7793 C.3     1  <0>        -0.0193
      4 C4         42.5032  -18.1489  103.7921 C.3     1  <0>         0.0538
      5 C5         48.1468  -20.9552  100.5902 C.ar    1  <0>         0.1448
      6 C6         49.1613  -21.9670  100.4147 C.ar    1  <0>         0.1469
      7 C7         47.6388  -20.7781  101.9189 C.ar    1  <0>         0.1572
      8 C8         43.9004  -18.2890  103.5702 C.3     1  <0>         0.0450
      9 C9         45.9518  -19.2732  102.9389 C.3     1  <0>         0.0643
     10 C10        46.1692  -17.8039  103.4817 C.3     1  <0>         0.1321
     11 C11        44.9293  -17.4857  104.2559 C.2     1  <0>         0.1686
     12 N1         49.7406  -22.2357   99.2013 N.pl3   1  <0>        -0.3413
     13 N2         49.5275  -22.6664  101.5756 N.ar    1  <0>        -0.2189
     14 N3         48.0304  -21.4944  103.0385 N.ar    1  <0>        -0.2181
     15 N4         47.4937  -20.0499   99.7464 N.2     1  <0>        -0.2332
     16 N5         46.7372  -19.7924  101.8301 N.pl3   1  <0>        -0.2682
     17 O1         42.0148  -19.3109  104.5459 O.3     1  <0>        -0.3943
     18 O2         47.2818  -17.6868  104.3552 O.3     1  <0>        -0.3824
     19 O3         44.8013  -16.4439  104.8545 O.2     1  <0>        -0.2942
     20 H1         49.3347  -23.0099  103.5771 H       1  <0>         0.1048
     21 H2         46.0314  -18.6080  100.1335 H       1  <0>         0.1003
     22 H3         44.0554  -20.2526  103.0826 H       1  <0>         0.0292
     23 H4         44.1998  -19.0818  101.7265 H       1  <0>         0.0292
     24 H5         42.3117  -17.2304  104.3664 H       1  <0>         0.0564
     25 H6         41.9809  -18.0907  102.8258 H       1  <0>         0.0564
     26 H7         43.0109  -17.7523  103.2085 H       1  <0>         0.0401
     27 H8         46.3676  -20.0234  103.6276 H       1  <0>         0.0534
     28 H9         46.3642  -17.1261  102.6376 H       1  <0>         0.0692
     29 H10        50.4154  -22.9661   99.3080 H       1  <0>         0.1438
     30 H11        49.0366  -22.5247   98.5526 H       1  <0>         0.1438
     31 H12        41.0792  -19.2267  104.6873 H       1  <0>         0.2094
     32 H13        47.1032  -17.0207  105.0086 H       1  <0>         0.2104
@<TRIPOS>BOND
     1     1    13   ar
     2     1    14   ar
     3     2    15    2
     4     2    16    1
     5     3     8    1
     6     3     9    1
     7     4     8    1
     8     4    17    1
     9     5     6   ar
    10     5     7   ar
    11     5    15    1
    12     6    12    1
    13     6    13   ar
    14     7    14   ar
    15     7    16    1
    16     8    11    1
    17     9    10    1
    18     9    16    1
    19    10    11    1
    20    10    18    1
    21    11    19    2
    22     1    20    1
    23     2    21    1
    24     3    22    1
    25     3    23    1
    26     4    24    1
    27     4    25    1
    28     8    26    1
    29     9    27    1
    30    10    28    1
    31    12    29    1
    32    12    30    1
    33    17    31    1
    34    18    32    1
@<TRIPOS>SUBSTRUCTURE
     1 <0>         1 TEMP              0 ****  ****    0 ROOT

