
##########                                Name:        NOC_434_1LI4
##########                    Molecular_Weight:             263.256
##########                DOCK_Rotatable_Bonds:                   4
##########                       Formal_Charge:        -0.000100121
##########                     HBond_Acceptors:                   8
##########                        HBond_Donors:                   4
##########                         Heavy_Atoms:                  19
##########                            HA_RMSDs:               1.143
##########                            HA_RMSDh:               1.143
##########                            HA_RMSDm:               1.143
##########                          Grid_Score:          -53.731915
##########                     Grid_vdw_energy:          -51.502613
##########                      Grid_es_energy:           -2.229301
##########           Internal_energy_repulsive:            5.363552

@<TRIPOS>MOLECULE
NOC_434_1LI4
 32 34 1 0 0
SMALL
USER_CHARGES


@<TRIPOS>ATOM
      1 C1         48.9771  -22.4979  102.6164 C.ar    1  <0>         0.1203
      2 C2         46.8077  -19.5343  100.1643 C.2     1  <0>         0.0904
      3 C3         44.6396  -18.7009  102.0993 C.3     1  <0>        -0.0193
      4 C4         42.9929  -17.1207  103.0421 C.3     1  <0>         0.0538
      5 C5         48.2843  -21.0758  100.3846 C.ar    1  <0>         0.1448
      6 C6         49.3242  -22.0732  100.2970 C.ar    1  <0>         0.1469
      7 C7         47.6758  -20.8930  101.6696 C.ar    1  <0>         0.1572
      8 C8         44.2385  -17.8055  103.0682 C.3     1  <0>         0.0450
      9 C9         45.8948  -19.4045  102.5434 C.3     1  <0>         0.0643
     10 C10        46.4219  -18.3717  103.6187 C.3     1  <0>         0.1321
     11 C11        45.1919  -17.7414  104.1912 C.2     1  <0>         0.1686
     12 N1         49.9966  -22.3453   99.1334 N.pl3   1  <0>        -0.3413
     13 N2         49.6132  -22.7544  101.4900 N.ar    1  <0>        -0.2189
     14 N3         47.9934  -21.5912  102.8235 N.ar    1  <0>        -0.2181
     15 N4         47.6825  -20.1899   99.4840 N.2     1  <0>        -0.2332
     16 N5         46.7686  -19.9228  101.5024 N.pl3   1  <0>        -0.2682
     17 O1         41.9154  -18.0873  102.7936 O.3     1  <0>        -0.3943
     18 O2         47.1432  -18.9824  104.6775 O.3     1  <0>        -0.3824
     19 O3         45.2476  -16.9373  105.0914 O.2     1  <0>        -0.2942
     20 H1         49.2765  -23.0801  103.4754 H       1  <0>         0.1048
     21 H2         46.1738  -18.7675   99.7443 H       1  <0>         0.1003
     22 H3         43.8438  -19.4427  101.9363 H       1  <0>         0.0292
     23 H4         44.8369  -18.1601  101.1619 H       1  <0>         0.0292
     24 H5         42.8257  -16.6234  104.0088 H       1  <0>         0.0564
     25 H6         43.0037  -16.3671  102.2409 H       1  <0>         0.0564
     26 H7         43.7718  -16.8587  102.7586 H       1  <0>         0.0401
     27 H8         45.7629  -20.4067  102.9773 H       1  <0>         0.0534
     28 H9         47.1139  -17.6639  103.1390 H       1  <0>         0.0692
     29 H10        50.6724  -23.0636   99.2985 H       1  <0>         0.1438
     30 H11        49.3474  -22.6522   98.4374 H       1  <0>         0.1438
     31 H12        41.3297  -17.7452  102.1285 H       1  <0>         0.2094
     32 H13        47.3594  -18.3288  105.3322 H       1  <0>         0.2104
@<TRIPOS>BOND
     1     1    13   ar
     2     1    14   ar
     3     2    15    2
     4     2    16    1
     5     3     8    1
     6     3     9    1
     7     4     8    1
     8     4    17    1
     9     5     6   ar
    10     5     7   ar
    11     5    15    1
    12     6    12    1
    13     6    13   ar
    14     7    14   ar
    15     7    16    1
    16     8    11    1
    17     9    10    1
    18     9    16    1
    19    10    11    1
    20    10    18    1
    21    11    19    2
    22     1    20    1
    23     2    21    1
    24     3    22    1
    25     3    23    1
    26     4    24    1
    27     4    25    1
    28     8    26    1
    29     9    27    1
    30    10    28    1
    31    12    29    1
    32    12    30    1
    33    17    31    1
    34    18    32    1
@<TRIPOS>SUBSTRUCTURE
     1 <0>         1 TEMP              0 ****  ****    0 ROOT

