
##########                                Name:        NOC_434_1LI4
##########                    Molecular_Weight:             263.256
##########                DOCK_Rotatable_Bonds:                   4
##########                       Formal_Charge:        -0.000100121
##########                     HBond_Acceptors:                   8
##########                        HBond_Donors:                   4
##########                         Heavy_Atoms:                  19
##########                            HA_RMSDs:               0.760
##########                            HA_RMSDh:               0.760
##########                            HA_RMSDm:               0.760
##########                          Grid_Score:          -52.967327
##########                     Grid_vdw_energy:          -52.350086
##########                      Grid_es_energy:           -0.617241
##########           Internal_energy_repulsive:            4.451022

@<TRIPOS>MOLECULE
NOC_434_1LI4
 32 34 1 0 0
SMALL
USER_CHARGES


@<TRIPOS>ATOM
      1 C1         48.9781  -22.4950  102.6320 C.ar    1  <0>         0.1203
      2 C2         46.6972  -19.5461  100.2648 C.2     1  <0>         0.0904
      3 C3         44.4047  -19.3042  102.4113 C.3     1  <0>        -0.0193
      4 C4         42.4588  -18.0994  103.3384 C.3     1  <0>         0.0538
      5 C5         48.1880  -21.0810  100.4274 C.ar    1  <0>         0.1448
      6 C6         49.2275  -22.0743  100.2993 C.ar    1  <0>         0.1469
      7 C7         47.6322  -20.8976  101.7360 C.ar    1  <0>         0.1572
      8 C8         43.8569  -18.3239  103.2116 C.3     1  <0>         0.0450
      9 C9         45.8825  -19.4143  102.6792 C.3     1  <0>         0.0643
     10 C10        46.1524  -17.9915  103.3145 C.3     1  <0>         0.1321
     11 C11        44.8803  -17.6273  104.0124 C.2     1  <0>         0.1686
     12 N1         49.8526  -22.3465   99.1096 N.pl3   1  <0>        -0.3413
     13 N2         49.5682  -22.7516  101.4809 N.ar    1  <0>        -0.2189
     14 N3         48.0000  -21.5918  102.8774 N.ar    1  <0>        -0.2181
     15 N4         47.5459  -20.1997   99.5505 N.2     1  <0>        -0.2332
     16 N5         46.7148  -19.9315  101.6041 N.pl3   1  <0>        -0.2682
     17 O1         41.8710  -19.1654  104.1600 O.3     1  <0>        -0.3943
     18 O2         47.2005  -17.9936  104.2715 O.3     1  <0>        -0.3824
     19 O3         44.7747  -16.6095  104.6551 O.2     1  <0>        -0.2942
     20 H1         49.3150  -23.0739  103.4792 H       1  <0>         0.1048
     21 H2         46.0433  -18.7828   99.8695 H       1  <0>         0.1003
     22 H3         43.9213  -20.2675  102.6318 H       1  <0>         0.0292
     23 H4         44.2439  -19.0446  101.3546 H       1  <0>         0.0292
     24 H5         42.2843  -17.1255  103.8190 H       1  <0>         0.0564
     25 H6         41.9933  -18.1034  102.3418 H       1  <0>         0.0564
     26 H7         43.0341  -17.7106  102.8155 H       1  <0>         0.0401
     27 H8         46.1952  -20.2239  103.3550 H       1  <0>         0.0534
     28 H9         46.4546  -17.2884  102.5243 H       1  <0>         0.0692
     29 H10        50.5376  -23.0617   99.2483 H       1  <0>         0.1438
     30 H11        49.1766  -22.6577   98.4416 H       1  <0>         0.1438
     31 H12        40.9330  -19.0318  104.2291 H       1  <0>         0.2094
     32 H13        47.0929  -17.2565  104.8612 H       1  <0>         0.2104
@<TRIPOS>BOND
     1     1    13   ar
     2     1    14   ar
     3     2    15    2
     4     2    16    1
     5     3     8    1
     6     3     9    1
     7     4     8    1
     8     4    17    1
     9     5     6   ar
    10     5     7   ar
    11     5    15    1
    12     6    12    1
    13     6    13   ar
    14     7    14   ar
    15     7    16    1
    16     8    11    1
    17     9    10    1
    18     9    16    1
    19    10    11    1
    20    10    18    1
    21    11    19    2
    22     1    20    1
    23     2    21    1
    24     3    22    1
    25     3    23    1
    26     4    24    1
    27     4    25    1
    28     8    26    1
    29     9    27    1
    30    10    28    1
    31    12    29    1
    32    12    30    1
    33    17    31    1
    34    18    32    1
@<TRIPOS>SUBSTRUCTURE
     1 <0>         1 TEMP              0 ****  ****    0 ROOT

