
##########                                Name:        NOC_434_1LI4
##########                    Molecular_Weight:             263.256
##########                DOCK_Rotatable_Bonds:                   4
##########                       Formal_Charge:        -0.000100121
##########                     HBond_Acceptors:                   8
##########                        HBond_Donors:                   4
##########                         Heavy_Atoms:                  19
##########                            HA_RMSDs:               0.642
##########                            HA_RMSDh:               0.642
##########                            HA_RMSDm:               0.642
##########                          Grid_Score:          -52.612404
##########                     Grid_vdw_energy:          -51.853119
##########                      Grid_es_energy:           -0.759283
##########           Internal_energy_repulsive:            4.291310

@<TRIPOS>MOLECULE
NOC_434_1LI4
 32 34 1 0 0
SMALL
USER_CHARGES


@<TRIPOS>ATOM
      1 C1         49.1444  -22.4502  102.3432 C.ar    1  <0>         0.1203
      2 C2         46.6456  -19.4306  100.3087 C.2     1  <0>         0.0904
      3 C3         44.4253  -19.3837  102.5007 C.3     1  <0>        -0.0193
      4 C4         42.4997  -18.2878  103.5909 C.3     1  <0>         0.0538
      5 C5         48.2157  -20.8933  100.2946 C.ar    1  <0>         0.1448
      6 C6         49.2992  -21.8155  100.0511 C.ar    1  <0>         0.1469
      7 C7         47.6928  -20.8540  101.6287 C.ar    1  <0>         0.1572
      8 C8         43.8939  -18.5145  103.4301 C.3     1  <0>         0.0450
      9 C9         45.9015  -19.5526  102.7463 C.3     1  <0>         0.0643
     10 C10        46.1946  -18.2353  103.5706 C.3     1  <0>         0.1321
     11 C11        44.9290  -17.9509  104.3160 C.2     1  <0>         0.1686
     12 N1         49.8994  -21.9498   98.8256 N.pl3   1  <0>        -0.3413
     13 N2         49.7103  -22.5742  101.1585 N.ar    1  <0>        -0.2189
     14 N3         48.1305  -21.6246  102.6939 N.ar    1  <0>        -0.2181
     15 N4         47.5031  -19.9740   99.5168 N.2     1  <0>        -0.2332
     16 N5         46.7245  -19.9297  101.6077 N.pl3   1  <0>        -0.2682
     17 O1         41.9240  -19.3717  104.3976 O.3     1  <0>        -0.3943
     18 O2         47.2433  -18.3855  104.5151 O.3     1  <0>        -0.3824
     19 O3         44.8402  -17.0299  105.0931 O.2     1  <0>        -0.2942
     20 H1         49.5364  -23.0822  103.1265 H       1  <0>         0.1048
     21 H2         45.9422  -18.6713  100.0003 H       1  <0>         0.1003
     22 H3         43.9269  -20.3604  102.5880 H       1  <0>         0.0292
     23 H4         44.2677  -18.9784  101.4903 H       1  <0>         0.0292
     24 H5         42.3392  -17.3255  104.0990 H       1  <0>         0.0564
     25 H6         42.0140  -18.2651  102.6043 H       1  <0>         0.0564
     26 H7         43.0806  -17.8397  103.1248 H       1  <0>         0.0401
     27 H8         46.2019  -20.4524  103.3032 H       1  <0>         0.0534
     28 H9         46.5071  -17.4348  102.8839 H       1  <0>         0.0692
     29 H10        50.6234  -22.6373   98.8820 H       1  <0>         0.1438
     30 H11        49.2192  -22.2368   98.1511 H       1  <0>         0.1438
     31 H12        40.9801  -19.3797  104.2906 H       1  <0>         0.2094
     32 H13        46.9836  -17.9965  105.3419 H       1  <0>         0.2104
@<TRIPOS>BOND
     1     1    13   ar
     2     1    14   ar
     3     2    15    2
     4     2    16    1
     5     3     8    1
     6     3     9    1
     7     4     8    1
     8     4    17    1
     9     5     6   ar
    10     5     7   ar
    11     5    15    1
    12     6    12    1
    13     6    13   ar
    14     7    14   ar
    15     7    16    1
    16     8    11    1
    17     9    10    1
    18     9    16    1
    19    10    11    1
    20    10    18    1
    21    11    19    2
    22     1    20    1
    23     2    21    1
    24     3    22    1
    25     3    23    1
    26     4    24    1
    27     4    25    1
    28     8    26    1
    29     9    27    1
    30    10    28    1
    31    12    29    1
    32    12    30    1
    33    17    31    1
    34    18    32    1
@<TRIPOS>SUBSTRUCTURE
     1 <0>         1 TEMP              0 ****  ****    0 ROOT

