
##########                                Name:        NOC_434_1LI4
##########                    Molecular_Weight:             263.256
##########                DOCK_Rotatable_Bonds:                   4
##########                       Formal_Charge:        -0.000100121
##########                     HBond_Acceptors:                   8
##########                        HBond_Donors:                   4
##########                         Heavy_Atoms:                  19
##########                            HA_RMSDs:               4.344
##########                            HA_RMSDh:               3.948
##########                            HA_RMSDm:               3.427
##########                          Grid_Score:          -47.161079
##########                     Grid_vdw_energy:          -43.559837
##########                      Grid_es_energy:           -3.601244
##########           Internal_energy_repulsive:            4.405605

@<TRIPOS>MOLECULE
NOC_434_1LI4
 32 34 1 0 0
SMALL
USER_CHARGES


@<TRIPOS>ATOM
      1 C1         46.2013  -19.3139  100.0789 C.ar    1  <0>         0.1203
      2 C2         45.3637  -19.0551  104.4072 C.2     1  <0>         0.0904
      3 C3         43.9005  -16.1802  103.6992 C.3     1  <0>        -0.0193
      4 C4         42.5404  -14.2648  104.4601 C.3     1  <0>         0.0538
      5 C5         46.5007  -19.8121  102.7521 C.ar    1  <0>         0.1448
      6 C6         47.3898  -20.4453  101.8075 C.ar    1  <0>         0.1469
      7 C7         45.4944  -18.9483  102.2079 C.ar    1  <0>         0.1572
      8 C8         42.7023  -15.6320  104.1058 C.3     1  <0>         0.0450
      9 C9         43.6746  -17.5795  103.1907 C.3     1  <0>         0.0643
     10 C10        42.2987  -17.9090  103.8972 C.3     1  <0>         0.1321
     11 C11        41.5907  -16.5956  104.0058 C.2     1  <0>         0.1686
     12 N1         48.3908  -21.3016  102.1883 N.pl3   1  <0>        -0.3413
     13 N2         47.1640  -20.1317  100.4578 N.ar    1  <0>        -0.2189
     14 N3         45.3086  -18.6664  100.8641 N.ar    1  <0>        -0.2181
     15 N4         46.3611  -19.8258  104.1443 N.2     1  <0>        -0.2332
     16 N5         44.7986  -18.5002  103.2602 N.pl3   1  <0>        -0.2682
     17 O1         42.9132  -13.4221  103.3165 O.3     1  <0>        -0.3943
     18 O2         41.4809  -18.7950  103.1485 O.3     1  <0>        -0.3824
     19 O3         40.4722  -16.5096  104.4548 O.2     1  <0>        -0.2942
     20 H1         46.1149  -19.1401   99.0165 H       1  <0>         0.1048
     21 H2         45.0043  -18.8600  105.4067 H       1  <0>         0.1003
     22 H3         44.3290  -15.5644  102.8947 H       1  <0>         0.0292
     23 H4         44.5959  -16.2095  104.5510 H       1  <0>         0.0292
     24 H5         41.4908  -14.0760  104.7299 H       1  <0>         0.0564
     25 H6         43.1862  -14.0277  105.3183 H       1  <0>         0.0564
     26 H7         42.6933  -14.9518  104.9702 H       1  <0>         0.0401
     27 H8         43.6054  -17.6949  102.0989 H       1  <0>         0.0534
     28 H9         42.4905  -18.4028  104.8612 H       1  <0>         0.0692
     29 H10        48.8797  -21.6249  101.3781 H       1  <0>         0.1438
     30 H11        49.0275  -20.8223  102.7924 H       1  <0>         0.1438
     31 H12        42.7034  -12.5157  103.5087 H       1  <0>         0.2094
     32 H13        40.6201  -18.4104  103.0324 H       1  <0>         0.2104
@<TRIPOS>BOND
     1     1    13   ar
     2     1    14   ar
     3     2    15    2
     4     2    16    1
     5     3     8    1
     6     3     9    1
     7     4     8    1
     8     4    17    1
     9     5     6   ar
    10     5     7   ar
    11     5    15    1
    12     6    12    1
    13     6    13   ar
    14     7    14   ar
    15     7    16    1
    16     8    11    1
    17     9    10    1
    18     9    16    1
    19    10    11    1
    20    10    18    1
    21    11    19    2
    22     1    20    1
    23     2    21    1
    24     3    22    1
    25     3    23    1
    26     4    24    1
    27     4    25    1
    28     8    26    1
    29     9    27    1
    30    10    28    1
    31    12    29    1
    32    12    30    1
    33    17    31    1
    34    18    32    1
@<TRIPOS>SUBSTRUCTURE
     1 <0>         1 TEMP              0 ****  ****    0 ROOT

