
##########                                Name:        NOC_434_1LI4
##########                    Molecular_Weight:             263.256
##########                DOCK_Rotatable_Bonds:                   4
##########                       Formal_Charge:        -0.000100121
##########                     HBond_Acceptors:                   8
##########                        HBond_Donors:                   4
##########                         Heavy_Atoms:                  19
##########                            HA_RMSDs:               0.727
##########                            HA_RMSDh:               0.727
##########                            HA_RMSDm:               0.727
##########                          Grid_Score:          -46.782333
##########                     Grid_vdw_energy:          -46.435654
##########                      Grid_es_energy:           -0.346682
##########           Internal_energy_repulsive:            4.228579

@<TRIPOS>MOLECULE
NOC_434_1LI4
 32 34 1 0 0
SMALL
USER_CHARGES


@<TRIPOS>ATOM
      1 C1         48.6587  -22.8753  102.5755 C.ar    1  <0>         0.1203
      2 C2         47.2807  -19.1913  100.5676 C.2     1  <0>         0.0904
      3 C3         44.6013  -19.3769  102.4452 C.3     1  <0>        -0.0193
      4 C4         42.5122  -18.3346  103.2495 C.3     1  <0>         0.0538
      5 C5         48.4892  -20.9637  100.6261 C.ar    1  <0>         0.1448
      6 C6         49.3868  -22.0804  100.4499 C.ar    1  <0>         0.1469
      7 C7         47.7341  -20.9321  101.8441 C.ar    1  <0>         0.1572
      8 C8         43.9289  -18.4462  103.2089 C.3     1  <0>         0.0450
      9 C9         46.0640  -19.3694  102.8033 C.3     1  <0>         0.0643
     10 C10        46.1799  -17.9317  103.4518 C.3     1  <0>         0.1321
     11 C11        44.8425  -17.6727  104.0699 C.2     1  <0>         0.1686
     12 N1         50.1753  -22.2317   99.3383 N.pl3   1  <0>        -0.3413
     13 N2         49.4082  -23.0127  101.4993 N.ar    1  <0>        -0.2189
     14 N3         47.7869  -21.8780  102.8552 N.ar    1  <0>        -0.2181
     15 N4         48.1469  -19.8382   99.8683 N.2     1  <0>        -0.2332
     16 N5         46.9993  -19.8147  101.7821 N.pl3   1  <0>        -0.2682
     17 O1         41.9584  -19.4786  103.9854 O.3     1  <0>        -0.3943
     18 O2         47.1642  -17.8533  104.4713 O.3     1  <0>        -0.3824
     19 O3         44.6167  -16.6688  104.7034 O.2     1  <0>        -0.2942
     20 H1         48.7513  -23.6500  103.3223 H       1  <0>         0.1048
     21 H2         46.8224  -18.2670  100.2482 H       1  <0>         0.1003
     22 H3         44.1839  -20.3764  102.6372 H       1  <0>         0.0292
     23 H4         44.4852  -19.1273  101.3802 H       1  <0>         0.0292
     24 H5         42.2308  -17.3997  103.7562 H       1  <0>         0.0564
     25 H6         42.1138  -18.3283  102.2243 H       1  <0>         0.0564
     26 H7         43.0855  -17.8993  102.7622 H       1  <0>         0.0401
     27 H8         46.3986  -20.1537  103.4982 H       1  <0>         0.0534
     28 H9         46.4726  -17.2040  102.6805 H       1  <0>         0.0692
     29 H10        50.7175  -23.0675   99.4249 H       1  <0>         0.1438
     30 H11        49.5965  -22.2928   98.5251 H       1  <0>         0.1438
     31 H12        41.0207  -19.5250  103.8405 H       1  <0>         0.2094
     32 H13        46.8984  -17.2122  105.1200 H       1  <0>         0.2104
@<TRIPOS>BOND
     1     1    13   ar
     2     1    14   ar
     3     2    15    2
     4     2    16    1
     5     3     8    1
     6     3     9    1
     7     4     8    1
     8     4    17    1
     9     5     6   ar
    10     5     7   ar
    11     5    15    1
    12     6    12    1
    13     6    13   ar
    14     7    14   ar
    15     7    16    1
    16     8    11    1
    17     9    10    1
    18     9    16    1
    19    10    11    1
    20    10    18    1
    21    11    19    2
    22     1    20    1
    23     2    21    1
    24     3    22    1
    25     3    23    1
    26     4    24    1
    27     4    25    1
    28     8    26    1
    29     9    27    1
    30    10    28    1
    31    12    29    1
    32    12    30    1
    33    17    31    1
    34    18    32    1
@<TRIPOS>SUBSTRUCTURE
     1 <0>         1 TEMP              0 ****  ****    0 ROOT

