
##########                                Name:        NOC_434_1LI4
##########                    Molecular_Weight:             263.256
##########                DOCK_Rotatable_Bonds:                   4
##########                       Formal_Charge:        -0.000100121
##########                     HBond_Acceptors:                   8
##########                        HBond_Donors:                   4
##########                         Heavy_Atoms:                  19
##########                            HA_RMSDs:               0.797
##########                            HA_RMSDh:               0.797
##########                            HA_RMSDm:               0.797
##########                          Grid_Score:          -52.389183
##########                     Grid_vdw_energy:          -52.611687
##########                      Grid_es_energy:            0.222502
##########           Internal_energy_repulsive:            4.427049

@<TRIPOS>MOLECULE
NOC_434_1LI4
 32 34 1 0 0
SMALL
USER_CHARGES


@<TRIPOS>ATOM
      1 C1         48.8723  -22.2777  102.8886 C.ar    1  <0>         0.1203
      2 C2         46.5584  -19.3577  100.5176 C.2     1  <0>         0.0904
      3 C3         44.3093  -19.0964  102.7207 C.3     1  <0>        -0.0193
      4 C4         42.3757  -17.8875  103.6680 C.3     1  <0>         0.0538
      5 C5         48.0436  -20.8986  100.6762 C.ar    1  <0>         0.1448
      6 C6         49.0745  -21.9003  100.5440 C.ar    1  <0>         0.1469
      7 C7         47.5168  -20.6884  101.9927 C.ar    1  <0>         0.1572
      8 C8         43.7723  -18.0975  103.5052 C.3     1  <0>         0.0450
      9 C9         45.7960  -19.1779  102.9459 C.3     1  <0>         0.0643
     10 C10        46.0650  -17.7315  103.5258 C.3     1  <0>         0.1321
     11 C11        44.8098  -17.3613  104.2507 C.2     1  <0>         0.1686
     12 N1         49.6726  -22.1974   99.3464 N.pl3   1  <0>        -0.3413
     13 N2         49.4364  -22.5584  101.7301 N.ar    1  <0>        -0.2189
     14 N3         47.9048  -21.3643  103.1384 N.ar    1  <0>        -0.2181
     15 N4         47.3880  -20.0292   99.7974 N.2     1  <0>        -0.2332
     16 N5         46.6023  -19.7193  101.8630 N.pl3   1  <0>        -0.2682
     17 O1         41.8369  -18.9063  104.5782 O.3     1  <0>        -0.3943
     18 O2         47.1417  -17.6881  104.4495 O.3     1  <0>        -0.3824
     19 O3         44.7094  -16.3244  104.8629 O.2     1  <0>        -0.2942
     20 H1         49.2239  -22.8434  103.7388 H       1  <0>         0.1048
     21 H2         45.9006  -18.5977  100.1226 H       1  <0>         0.1003
     22 H3         43.8466  -20.0581  102.9873 H       1  <0>         0.0292
     23 H4         44.1125  -18.8739  101.6615 H       1  <0>         0.0292
     24 H5         42.2004  -16.8869  104.0901 H       1  <0>         0.0564
     25 H6         41.8754  -17.9644  102.6914 H       1  <0>         0.0564
     26 H7         42.9291  -17.5085  103.1150 H       1  <0>         0.0401
     27 H8         46.1408  -19.9606  103.6377 H       1  <0>         0.0534
     28 H9         46.3327  -17.0509  102.7042 H       1  <0>         0.0692
     29 H10        50.3563  -22.9142   99.4834 H       1  <0>         0.1438
     30 H11        48.9807  -22.5164   98.6985 H       1  <0>         0.1438
     31 H12        41.1522  -18.5230  105.1137 H       1  <0>         0.2094
     32 H13        46.9574  -17.0421  105.1212 H       1  <0>         0.2104
@<TRIPOS>BOND
     1     1    13   ar
     2     1    14   ar
     3     2    15    2
     4     2    16    1
     5     3     8    1
     6     3     9    1
     7     4     8    1
     8     4    17    1
     9     5     6   ar
    10     5     7   ar
    11     5    15    1
    12     6    12    1
    13     6    13   ar
    14     7    14   ar
    15     7    16    1
    16     8    11    1
    17     9    10    1
    18     9    16    1
    19    10    11    1
    20    10    18    1
    21    11    19    2
    22     1    20    1
    23     2    21    1
    24     3    22    1
    25     3    23    1
    26     4    24    1
    27     4    25    1
    28     8    26    1
    29     9    27    1
    30    10    28    1
    31    12    29    1
    32    12    30    1
    33    17    31    1
    34    18    32    1
@<TRIPOS>SUBSTRUCTURE
     1 <0>         1 TEMP              0 ****  ****    0 ROOT

