
##########                                Name:        NOC_434_1LI4
##########                    Molecular_Weight:             263.256
##########                DOCK_Rotatable_Bonds:                   4
##########                       Formal_Charge:        -0.000100121
##########                     HBond_Acceptors:                   8
##########                        HBond_Donors:                   4
##########                         Heavy_Atoms:                  19
##########                            HA_RMSDs:               3.843
##########                            HA_RMSDh:               3.381
##########                            HA_RMSDm:               3.008
##########                          Grid_Score:          -49.935608
##########                     Grid_vdw_energy:          -47.917645
##########                      Grid_es_energy:           -2.017962
##########           Internal_energy_repulsive:            4.215067

@<TRIPOS>MOLECULE
NOC_434_1LI4
 32 34 1 0 0
SMALL
USER_CHARGES


@<TRIPOS>ATOM
      1 C1         46.6657  -20.0510  100.0340 C.ar    1  <0>         0.1203
      2 C2         45.9392  -19.4810  104.3524 C.2     1  <0>         0.0904
      3 C3         44.4674  -16.6494  103.3333 C.3     1  <0>        -0.0193
      4 C4         43.1696  -14.6286  103.9076 C.3     1  <0>         0.0538
      5 C5         47.0391  -20.3496  102.7274 C.ar    1  <0>         0.1448
      6 C6         47.9087  -21.0444  101.8083 C.ar    1  <0>         0.1469
      7 C7         46.0114  -19.5350  102.1485 C.ar    1  <0>         0.1572
      8 C8         43.3088  -16.0358  103.7606 C.3     1  <0>         0.0450
      9 C9         44.2061  -18.1101  103.0768 C.3     1  <0>         0.0643
     10 C10        42.9068  -18.3142  103.9548 C.3     1  <0>         0.1321
     11 C11        42.2011  -16.9956  103.9212 C.2     1  <0>         0.1686
     12 N1         48.9267  -21.8637  102.2239 N.pl3   1  <0>        -0.3413
     13 N2         47.6450  -20.8322  100.4458 N.ar    1  <0>        -0.2189
     14 N3         45.7881  -19.3536  100.7931 N.ar    1  <0>        -0.2181
     15 N4         46.9360  -20.2621  104.1202 N.2     1  <0>        -0.2332
     16 N5         45.3395  -19.0155  103.1835 N.pl3   1  <0>        -0.2682
     17 O1         43.5267  -13.9731  102.6428 O.3     1  <0>        -0.3943
     18 O2         42.0290  -19.3023  103.4376 O.3     1  <0>        -0.3824
     19 O3         41.1298  -16.8321  104.4558 O.2     1  <0>        -0.2942
     20 H1         46.5500  -19.9562   98.9643 H       1  <0>         0.1048
     21 H2         45.6044  -19.2155  105.3443 H       1  <0>         0.1003
     22 H3         44.8118  -16.1718  102.4041 H       1  <0>         0.0292
     23 H4         45.2412  -16.5480  104.1085 H       1  <0>         0.0292
     24 H5         42.1284  -14.3865  104.1667 H       1  <0>         0.0564
     25 H6         43.8366  -14.2742  104.7073 H       1  <0>         0.0564
     26 H7         43.3766  -15.2271  104.5032 H       1  <0>         0.0401
     27 H8         44.0340  -18.3966  102.0288 H       1  <0>         0.0534
     28 H9         43.1940  -18.6503  104.9621 H       1  <0>         0.0692
     29 H10        49.3971  -22.2423  101.4267 H       1  <0>         0.1438
     30 H11        49.5748  -21.3370  102.7741 H       1  <0>         0.1438
     31 H12        43.3192  -13.0476  102.6956 H       1  <0>         0.2094
     32 H13        41.1505  -18.9458  103.3774 H       1  <0>         0.2104
@<TRIPOS>BOND
     1     1    13   ar
     2     1    14   ar
     3     2    15    2
     4     2    16    1
     5     3     8    1
     6     3     9    1
     7     4     8    1
     8     4    17    1
     9     5     6   ar
    10     5     7   ar
    11     5    15    1
    12     6    12    1
    13     6    13   ar
    14     7    14   ar
    15     7    16    1
    16     8    11    1
    17     9    10    1
    18     9    16    1
    19    10    11    1
    20    10    18    1
    21    11    19    2
    22     1    20    1
    23     2    21    1
    24     3    22    1
    25     3    23    1
    26     4    24    1
    27     4    25    1
    28     8    26    1
    29     9    27    1
    30    10    28    1
    31    12    29    1
    32    12    30    1
    33    17    31    1
    34    18    32    1
@<TRIPOS>SUBSTRUCTURE
     1 <0>         1 TEMP              0 ****  ****    0 ROOT

