
##########                                Name:        NOC_434_1LI4
##########                    Molecular_Weight:             263.256
##########                DOCK_Rotatable_Bonds:                   4
##########                       Formal_Charge:        -0.000100121
##########                     HBond_Acceptors:                   8
##########                        HBond_Donors:                   4
##########                         Heavy_Atoms:                  19
##########                            HA_RMSDs:               0.738
##########                            HA_RMSDh:               0.738
##########                            HA_RMSDm:               0.738
##########                          Grid_Score:          -55.586838
##########                     Grid_vdw_energy:          -55.564117
##########                      Grid_es_energy:           -0.022720
##########           Internal_energy_repulsive:            4.554815

@<TRIPOS>MOLECULE
NOC_434_1LI4
 32 34 1 0 0
SMALL
USER_CHARGES


@<TRIPOS>ATOM
      1 C1         49.0414  -22.3512  102.4852 C.ar    1  <0>         0.1203
      2 C2         46.4958  -19.5134  100.2561 C.2     1  <0>         0.0904
      3 C3         44.3598  -19.2429  102.5233 C.3     1  <0>        -0.0193
      4 C4         42.4781  -18.0350  103.5710 C.3     1  <0>         0.0538
      5 C5         48.0493  -20.9921  100.3284 C.ar    1  <0>         0.1448
      6 C6         49.1130  -21.9490  100.1371 C.ar    1  <0>         0.1469
      7 C7         47.5793  -20.8134  101.6708 C.ar    1  <0>         0.1572
      8 C8         43.8650  -18.2771  103.3742 C.3     1  <0>         0.0450
      9 C9         45.8462  -19.3828  102.7201 C.3     1  <0>         0.0643
     10 C10        46.1681  -17.9825  103.3808 C.3     1  <0>         0.1321
     11 C11        44.9351  -17.6186  104.1459 C.2     1  <0>         0.1686
     12 N1         49.6635  -22.2125   98.9092 N.pl3   1  <0>        -0.3413
     13 N2         49.5593  -22.5999  101.2982 N.ar    1  <0>        -0.2189
     14 N3         48.0503  -21.4807  102.7900 N.ar    1  <0>        -0.2181
     15 N4         47.3162  -20.1445   99.4903 N.2     1  <0>        -0.2332
     16 N5         46.6203  -19.8823  101.5944 N.pl3   1  <0>        -0.2682
     17 O1         41.8788  -19.1880  104.2554 O.3     1  <0>        -0.3943
     18 O2         47.2583  -18.0271  104.2884 O.3     1  <0>        -0.3824
     19 O3         44.8755  -16.6177  104.8201 O.2     1  <0>        -0.2942
     20 H1         49.4571  -22.9078  103.3122 H       1  <0>         0.1048
     21 H2         45.7887  -18.7786   99.9004 H       1  <0>         0.1003
     22 H3         43.8712  -20.2044  102.7395 H       1  <0>         0.0292
     23 H4         44.1555  -18.9514  101.4825 H       1  <0>         0.0292
     24 H5         42.3452  -17.1323  104.1853 H       1  <0>         0.0564
     25 H6         41.9878  -17.8892  102.5971 H       1  <0>         0.0564
     26 H7         43.0353  -17.6405  103.0330 H       1  <0>         0.0401
     27 H8         46.1760  -20.2156  103.3586 H       1  <0>         0.0534
     28 H9         46.4455  -17.2623  102.5970 H       1  <0>         0.0692
     29 H10        50.3821  -22.9011   99.0064 H       1  <0>         0.1438
     30 H11        48.9546  -22.5554   98.2929 H       1  <0>         0.1438
     31 H12        41.0190  -18.9510  104.5824 H       1  <0>         0.2094
     32 H13        46.9534  -17.8083  105.1612 H       1  <0>         0.2104
@<TRIPOS>BOND
     1     1    13   ar
     2     1    14   ar
     3     2    15    2
     4     2    16    1
     5     3     8    1
     6     3     9    1
     7     4     8    1
     8     4    17    1
     9     5     6   ar
    10     5     7   ar
    11     5    15    1
    12     6    12    1
    13     6    13   ar
    14     7    14   ar
    15     7    16    1
    16     8    11    1
    17     9    10    1
    18     9    16    1
    19    10    11    1
    20    10    18    1
    21    11    19    2
    22     1    20    1
    23     2    21    1
    24     3    22    1
    25     3    23    1
    26     4    24    1
    27     4    25    1
    28     8    26    1
    29     9    27    1
    30    10    28    1
    31    12    29    1
    32    12    30    1
    33    17    31    1
    34    18    32    1
@<TRIPOS>SUBSTRUCTURE
     1 <0>         1 TEMP              0 ****  ****    0 ROOT

