
##########                                Name:        OAP_190_1KVO
##########                    Molecular_Weight:             502.697
##########                DOCK_Rotatable_Bonds:                  17
##########                       Formal_Charge:             -1.0002
##########                     HBond_Acceptors:                   5
##########                        HBond_Donors:                   1
##########                         Heavy_Atoms:                  36
##########                            HA_RMSDs:              10.864
##########                            HA_RMSDh:               9.569
##########                            HA_RMSDm:               8.015
##########                          Grid_Score:            0.061447
##########                     Grid_vdw_energy:          -46.893982
##########                      Grid_es_energy:           46.955429
##########           Internal_energy_repulsive:           23.515812

@<TRIPOS>MOLECULE
OAP_190_1KVO
 72 74 1 0 0
SMALL
USER_CHARGES


@<TRIPOS>ATOM
      1 C1        -41.0446   66.3217   37.3229 C.ar    1  <0>        -0.0617
      2 C2        -39.5661   62.5639   34.3536 C.ar    1  <0>        -0.0617
      3 C3        -40.2705   65.4810   38.0992 C.ar    1  <0>        -0.0615
      4 C4        -42.2024   66.9004   37.8586 C.ar    1  <0>        -0.0615
      5 C5        -39.5686   61.4521   35.1655 C.ar    1  <0>        -0.0615
      6 C6        -40.7477   63.0246   33.8073 C.ar    1  <0>        -0.0615
      7 C7        -40.6483   65.2153   39.4141 C.ar    1  <0>        -0.0586
      8 C8        -42.5702   66.6253   39.1683 C.ar    1  <0>        -0.0586
      9 C9        -40.7545   60.7993   35.4314 C.ar    1  <0>        -0.0583
     10 C10       -41.9353   62.3672   34.0747 C.ar    1  <0>        -0.0583
     11 C11       -43.6797   62.0013   37.0897 C.ar    1  <0>        -0.0572
     12 C12       -45.5478   60.9585   36.0057 C.ar    1  <0>        -0.0572
     13 C13       -44.5309   62.6281   37.9636 C.ar    1  <0>        -0.0481
     14 C14       -46.4092   61.5971   36.8963 C.ar    1  <0>        -0.0481
     15 C15       -43.9851   64.0490   42.3421 C.3     1  <0>        -0.0527
     16 C16       -44.4599   62.6502   42.6255 C.3     1  <0>        -0.0526
     17 C17       -42.7798   64.0396   41.4434 C.3     1  <0>        -0.0491
     18 C18       -45.6514   62.6784   43.5498 C.3     1  <0>        -0.0448
     19 C19       -42.2137   65.4360   41.3274 C.3     1  <0>        -0.0277
     20 C20       -49.3483   60.0521   40.3001 C.3     1  <0>        -0.0286
     21 C21       -46.3453   61.3161   43.5819 C.3     1  <0>         0.0240
     22 C22       -49.7038   59.3430   39.0076 C.3     1  <0>        -0.0115
     23 C23       -43.2358   60.4908   35.1324 C.3     1  <0>        -0.0024
     24 C24       -48.2941   62.1012   39.2230 C.3     1  <0>         0.0168
     25 C25       -41.7961   65.7767   39.9531 C.ar    1  <0>        -0.0474
     26 C26       -41.9534   61.2450   34.8862 C.ar    1  <0>        -0.0431
     27 C27       -44.1700   61.1640   36.0945 C.ar    1  <0>        -0.0430
     28 C28       -45.8886   62.4259   37.8699 C.ar    1  <0>         0.0080
     29 C29       -48.0944   60.9314   40.2145 C.3     1  <0>         0.0327
     30 C30       -46.7137   60.7950   42.2004 C.2     1  <0>         0.2133
     31 C31       -48.6041   58.4448   38.5257 C.2     1  <0>         0.0418
     32 N1        -47.7026   61.4033   41.5464 N.am    1  <0>        -0.3117
     33 O1        -48.5033   58.1930   37.3036 O.co2   1  <0>        -0.5498
     34 O2        -46.1211   59.8269   41.7277 O.2     1  <0>        -0.2758
     35 O3        -47.8105   58.0096   39.3750 O.co2   1  <0>        -0.5498
     36 S1        -46.8785   63.2297   38.9694 S.3     1  <0>        -0.1234
     37 H1        -40.7572   66.5328   36.3035 H       1  <0>         0.0618
     38 H2        -38.6388   63.0764   34.1436 H       1  <0>         0.0618
     39 H3        -39.3778   65.0322   37.6893 H       1  <0>         0.0618
     40 H4        -42.8077   67.5592   37.2536 H       1  <0>         0.0618
     41 H5        -38.6446   61.0920   35.5932 H       1  <0>         0.0618
     42 H6        -40.7447   63.8977   33.1716 H       1  <0>         0.0618
     43 H7        -40.0387   64.5630   40.0217 H       1  <0>         0.0620
     44 H8        -43.4626   67.0726   39.5806 H       1  <0>         0.0620
     45 H9        -40.7516   59.9299   36.0720 H       1  <0>         0.0620
     46 H10       -42.8570   62.7326   33.6465 H       1  <0>         0.0620
     47 H11       -42.6149   62.1604   37.1759 H       1  <0>         0.0621
     48 H12       -45.9472   60.3034   35.2456 H       1  <0>         0.0621
     49 H13       -44.1347   63.2816   38.7267 H       1  <0>         0.0629
     50 H14       -47.4759   61.4447   36.8253 H       1  <0>         0.0629
     51 H15       -44.7940   64.6074   41.8484 H       1  <0>         0.0265
     52 H16       -43.7181   64.5347   43.2922 H       1  <0>         0.0265
     53 H17       -44.7473   62.1674   41.6798 H       1  <0>         0.0265
     54 H18       -43.6469   62.0820   43.1011 H       1  <0>         0.0265
     55 H19       -42.0155   63.3709   41.8662 H       1  <0>         0.0268
     56 H20       -43.0725   63.6813   40.4454 H       1  <0>         0.0268
     57 H21       -45.3121   62.9323   44.5649 H       1  <0>         0.0270
     58 H22       -46.3646   63.4361   43.1928 H       1  <0>         0.0270
     59 H23       -42.9895   66.1504   41.6400 H       1  <0>         0.0313
     60 H24       -41.3340   65.5079   41.9838 H       1  <0>         0.0313
     61 H25       -50.1953   60.6978   40.5751 H       1  <0>         0.0287
     62 H26       -49.1713   59.2852   41.0684 H       1  <0>         0.0287
     63 H27       -45.6617   60.5932   44.0509 H       1  <0>         0.0358
     64 H28       -47.2698   61.4151   44.1697 H       1  <0>         0.0358
     65 H29       -50.6023   58.7324   39.1805 H       1  <0>         0.0325
     66 H30       -49.8979   60.1019   38.2354 H       1  <0>         0.0325
     67 H31       -43.7579   60.3872   34.1698 H       1  <0>         0.0361
     68 H32       -42.9751   59.5057   35.5468 H       1  <0>         0.0361
     69 H33       -48.5304   61.6569   38.2448 H       1  <0>         0.0398
     70 H34       -49.1259   62.7099   39.6072 H       1  <0>         0.0398
     71 H35       -47.2696   60.3182   39.8225 H       1  <0>         0.0506
     72 H36       -48.1762   62.1796   41.9627 H       1  <0>         0.1490
@<TRIPOS>BOND
     1     1     3   ar
     2     1     4   ar
     3     2     5   ar
     4     2     6   ar
     5     3     7   ar
     6     4     8   ar
     7     5     9   ar
     8     6    10   ar
     9     7    25   ar
    10     8    25   ar
    11     9    26   ar
    12    10    26   ar
    13    11    13   ar
    14    11    27   ar
    15    12    14   ar
    16    12    27   ar
    17    13    28   ar
    18    14    28   ar
    19    15    16    1
    20    15    17    1
    21    16    18    1
    22    17    19    1
    23    18    21    1
    24    19    25    1
    25    20    22    1
    26    20    29    1
    27    21    30    1
    28    22    31    1
    29    23    26    1
    30    23    27    1
    31    24    29    1
    32    24    36    1
    33    28    36    1
    34    29    32    1
    35    30    32   am
    36    30    34    2
    37    31    33    1
    38    31    35    2
    39     1    37    1
    40     2    38    1
    41     3    39    1
    42     4    40    1
    43     5    41    1
    44     6    42    1
    45     7    43    1
    46     8    44    1
    47     9    45    1
    48    10    46    1
    49    11    47    1
    50    12    48    1
    51    13    49    1
    52    14    50    1
    53    15    51    1
    54    15    52    1
    55    16    53    1
    56    16    54    1
    57    17    55    1
    58    17    56    1
    59    18    57    1
    60    18    58    1
    61    19    59    1
    62    19    60    1
    63    20    61    1
    64    20    62    1
    65    21    63    1
    66    21    64    1
    67    22    65    1
    68    22    66    1
    69    23    67    1
    70    23    68    1
    71    24    69    1
    72    24    70    1
    73    29    71    1
    74    32    72    1
@<TRIPOS>SUBSTRUCTURE
     1 <0>         1 TEMP              0 ****  ****    0 ROOT

