
##########                                Name:        OAP_190_1KVO
##########                    Molecular_Weight:             502.697
##########                DOCK_Rotatable_Bonds:                  17
##########                       Formal_Charge:             -1.0002
##########                     HBond_Acceptors:                   5
##########                        HBond_Donors:                   1
##########                         Heavy_Atoms:                  36
##########                            HA_RMSDs:              10.438
##########                            HA_RMSDh:               8.826
##########                            HA_RMSDm:               7.395
##########                          Grid_Score:           -4.367481
##########                     Grid_vdw_energy:          -47.485706
##########                      Grid_es_energy:           43.118225
##########           Internal_energy_repulsive:           19.236616

@<TRIPOS>MOLECULE
OAP_190_1KVO
 72 74 1 0 0
SMALL
USER_CHARGES


@<TRIPOS>ATOM
      1 C1        -41.7195   67.3359   35.3658 C.ar    1  <0>        -0.0617
      2 C2        -38.4598   62.9061   33.5595 C.ar    1  <0>        -0.0617
      3 C3        -40.8925   66.2707   35.6656 C.ar    1  <0>        -0.0615
      4 C4        -42.2260   68.1400   36.3949 C.ar    1  <0>        -0.0615
      5 C5        -38.2591   62.0481   34.6173 C.ar    1  <0>        -0.0615
      6 C6        -39.6830   62.9413   32.9195 C.ar    1  <0>        -0.0615
      7 C7        -40.5663   66.0044   36.9941 C.ar    1  <0>        -0.0586
      8 C8        -41.8969   67.8627   37.7145 C.ar    1  <0>        -0.0586
      9 C9        -39.2828   61.2233   35.0356 C.ar    1  <0>        -0.0583
     10 C10       -40.7073   62.1122   33.3404 C.ar    1  <0>        -0.0583
     11 C11       -42.5068   61.9490   36.4889 C.ar    1  <0>        -0.0572
     12 C12       -44.0681   60.5712   35.2986 C.ar    1  <0>        -0.0572
     13 C13       -43.5425   62.5616   37.1471 C.ar    1  <0>        -0.0481
     14 C14       -45.1175   61.1962   35.9703 C.ar    1  <0>        -0.0481
     15 C15       -42.9755   66.1208   40.4628 C.3     1  <0>        -0.0527
     16 C16       -43.9947   65.1182   40.9301 C.3     1  <0>        -0.0526
     17 C17       -41.7126   65.4394   40.0138 C.3     1  <0>        -0.0491
     18 C18       -45.2722   65.8153   41.3261 C.3     1  <0>        -0.0448
     19 C19       -40.7606   66.4557   39.4269 C.3     1  <0>        -0.0277
     20 C20       -48.2184   60.8099   40.6192 C.3     1  <0>        -0.0286
     21 C21       -46.2335   64.8403   42.0070 C.3     1  <0>         0.0240
     22 C22       -47.8218   59.4458   41.1500 C.3     1  <0>        -0.0115
     23 C23       -41.6135   60.2934   34.8244 C.3     1  <0>        -0.0024
     24 C24       -47.0106   61.6443   38.5419 C.3     1  <0>         0.0168
     25 C25       -41.0672   66.7892   38.0219 C.ar    1  <0>        -0.0474
     26 C26       -40.5195   61.2406   34.4004 C.ar    1  <0>        -0.0431
     27 C27       -42.7491   60.9517   35.5516 C.ar    1  <0>        -0.0430
     28 C28       -44.8413   62.1864   36.8917 C.ar    1  <0>         0.0080
     29 C29       -47.0475   61.6463   40.0879 C.3     1  <0>         0.0327
     30 C30       -46.1393   63.4224   41.4626 C.2     1  <0>         0.2133
     31 C31       -46.8416   59.5341   42.2814 C.2     1  <0>         0.0418
     32 N1        -47.0956   63.0069   40.6327 N.am    1  <0>        -0.3117
     33 O1        -45.9348   58.6768   42.3810 O.co2   1  <0>        -0.5498
     34 O2        -45.2141   62.6893   41.8067 O.2     1  <0>        -0.2758
     35 O3        -46.9592   60.4904   43.0637 O.co2   1  <0>        -0.5498
     36 S1        -46.0662   62.9821   37.7291 S.3     1  <0>        -0.1234
     37 H1        -41.9756   67.5486   34.3383 H       1  <0>         0.0618
     38 H2        -37.6598   63.5524   33.2299 H       1  <0>         0.0618
     39 H3        -40.5009   65.6479   34.8749 H       1  <0>         0.0618
     40 H4        -42.8713   68.9741   36.1621 H       1  <0>         0.0618
     41 H5        -37.3027   62.0208   35.1182 H       1  <0>         0.0618
     42 H6        -39.8397   63.6158   32.0908 H       1  <0>         0.0618
     43 H7        -39.9143   65.1753   37.2264 H       1  <0>         0.0620
     44 H8        -42.2872   68.4838   38.5071 H       1  <0>         0.0620
     45 H9        -39.1214   60.5548   35.8683 H       1  <0>         0.0620
     46 H10       -41.6627   62.1448   32.8378 H       1  <0>         0.0620
     47 H11       -41.4903   62.2453   36.7016 H       1  <0>         0.0621
     48 H12       -44.2758   59.7911   34.5812 H       1  <0>         0.0621
     49 H13       -43.3381   63.3402   37.8672 H       1  <0>         0.0629
     50 H14       -46.1390   60.9079   35.7712 H       1  <0>         0.0629
     51 H15       -43.3942   66.6885   39.6188 H       1  <0>         0.0265
     52 H16       -42.7378   66.8018   41.2933 H       1  <0>         0.0265
     53 H17       -44.2066   64.4111   40.1146 H       1  <0>         0.0265
     54 H18       -43.5952   64.5748   41.7991 H       1  <0>         0.0265
     55 H19       -41.2365   64.9501   40.8763 H       1  <0>         0.0268
     56 H20       -41.9570   64.6861   39.2504 H       1  <0>         0.0268
     57 H21       -45.0342   66.6311   42.0246 H       1  <0>         0.0270
     58 H22       -45.7531   66.2226   40.4245 H       1  <0>         0.0270
     59 H23       -40.8280   67.3773   40.0236 H       1  <0>         0.0313
     60 H24       -39.7428   66.0406   39.4694 H       1  <0>         0.0313
     61 H25       -48.9271   60.6574   39.7920 H       1  <0>         0.0287
     62 H26       -48.6871   61.3693   41.4421 H       1  <0>         0.0287
     63 H27       -45.9929   64.8131   43.0799 H       1  <0>         0.0358
     64 H28       -47.2601   65.2021   41.8477 H       1  <0>         0.0358
     65 H29       -48.7268   58.9357   41.5116 H       1  <0>         0.0325
     66 H30       -47.3595   58.8740   40.3319 H       1  <0>         0.0325
     67 H31       -42.0205   59.8193   33.9192 H       1  <0>         0.0361
     68 H32       -41.1705   59.5435   35.4963 H       1  <0>         0.0361
     69 H33       -46.5524   60.6934   38.2324 H       1  <0>         0.0398
     70 H34       -48.0511   61.7289   38.1953 H       1  <0>         0.0398
     71 H35       -46.1101   61.1835   40.4300 H       1  <0>         0.0506
     72 H36       -47.8439   63.6212   40.3822 H       1  <0>         0.1490
@<TRIPOS>BOND
     1     1     3   ar
     2     1     4   ar
     3     2     5   ar
     4     2     6   ar
     5     3     7   ar
     6     4     8   ar
     7     5     9   ar
     8     6    10   ar
     9     7    25   ar
    10     8    25   ar
    11     9    26   ar
    12    10    26   ar
    13    11    13   ar
    14    11    27   ar
    15    12    14   ar
    16    12    27   ar
    17    13    28   ar
    18    14    28   ar
    19    15    16    1
    20    15    17    1
    21    16    18    1
    22    17    19    1
    23    18    21    1
    24    19    25    1
    25    20    22    1
    26    20    29    1
    27    21    30    1
    28    22    31    1
    29    23    26    1
    30    23    27    1
    31    24    29    1
    32    24    36    1
    33    28    36    1
    34    29    32    1
    35    30    32   am
    36    30    34    2
    37    31    33    1
    38    31    35    2
    39     1    37    1
    40     2    38    1
    41     3    39    1
    42     4    40    1
    43     5    41    1
    44     6    42    1
    45     7    43    1
    46     8    44    1
    47     9    45    1
    48    10    46    1
    49    11    47    1
    50    12    48    1
    51    13    49    1
    52    14    50    1
    53    15    51    1
    54    15    52    1
    55    16    53    1
    56    16    54    1
    57    17    55    1
    58    17    56    1
    59    18    57    1
    60    18    58    1
    61    19    59    1
    62    19    60    1
    63    20    61    1
    64    20    62    1
    65    21    63    1
    66    21    64    1
    67    22    65    1
    68    22    66    1
    69    23    67    1
    70    23    68    1
    71    24    69    1
    72    24    70    1
    73    29    71    1
    74    32    72    1
@<TRIPOS>SUBSTRUCTURE
     1 <0>         1 TEMP              0 ****  ****    0 ROOT

