
##########                                Name:        OAP_190_1KVO
##########                    Molecular_Weight:             502.697
##########                DOCK_Rotatable_Bonds:                  17
##########                       Formal_Charge:             -1.0002
##########                     HBond_Acceptors:                   5
##########                        HBond_Donors:                   1
##########                         Heavy_Atoms:                  36
##########                            HA_RMSDs:              10.982
##########                            HA_RMSDh:               9.606
##########                            HA_RMSDm:               8.107
##########                          Grid_Score:           -1.570862
##########                     Grid_vdw_energy:          -46.745140
##########                      Grid_es_energy:           45.174278
##########           Internal_energy_repulsive:           17.200884

@<TRIPOS>MOLECULE
OAP_190_1KVO
 72 74 1 0 0
SMALL
USER_CHARGES


@<TRIPOS>ATOM
      1 C1        -41.9818   66.7314   36.4069 C.ar    1  <0>        -0.0617
      2 C2        -39.6297   62.0533   34.9231 C.ar    1  <0>        -0.0617
      3 C3        -40.9069   65.9225   36.7215 C.ar    1  <0>        -0.0615
      4 C4        -42.8028   67.2320   37.4255 C.ar    1  <0>        -0.0615
      5 C5        -39.9554   60.8762   35.5583 C.ar    1  <0>        -0.0615
      6 C6        -40.6116   62.7983   34.3003 C.ar    1  <0>        -0.0615
      7 C7        -40.6462   65.6110   38.0546 C.ar    1  <0>        -0.0586
      8 C8        -42.5350   66.9119   38.7492 C.ar    1  <0>        -0.0586
      9 C9        -41.2650   60.4426   35.5705 C.ar    1  <0>        -0.0583
     10 C10       -41.9239   62.3604   34.3131 C.ar    1  <0>        -0.0583
     11 C11       -44.0501   62.0714   36.9592 C.ar    1  <0>        -0.0572
     12 C12       -45.9397   60.9608   35.9850 C.ar    1  <0>        -0.0572
     13 C13       -44.8603   62.6127   37.9244 C.ar    1  <0>        -0.0481
     14 C14       -46.7592   61.5128   36.9682 C.ar    1  <0>        -0.0481
     15 C15       -42.7705   64.6515   42.0585 C.3     1  <0>        -0.0527
     16 C16       -43.6011   63.4355   42.3648 C.3     1  <0>        -0.0526
     17 C17       -41.8909   64.4184   40.8616 C.3     1  <0>        -0.0491
     18 C18       -44.8491   63.8287   43.1148 C.3     1  <0>        -0.0448
     19 C19       -41.2011   65.7053   40.4719 C.3     1  <0>        -0.0277
     20 C20       -48.7774   60.0023   41.5937 C.3     1  <0>        -0.0286
     21 C21       -45.5460   62.5960   43.6921 C.3     1  <0>         0.0240
     22 C22       -48.9849   58.7157   40.8183 C.3     1  <0>        -0.0115
     23 C23       -43.6848   60.6652   34.9101 C.3     1  <0>        -0.0024
     24 C24       -48.1881   61.6675   39.7635 C.3     1  <0>         0.0168
     25 C25       -41.4560   66.0951   39.0711 C.ar    1  <0>        -0.0474
     26 C26       -42.2665   61.1762   34.9444 C.ar    1  <0>        -0.0431
     27 C27       -44.5730   61.2447   35.9718 C.ar    1  <0>        -0.0430
     28 C28       -46.2076   62.3336   37.9314 C.ar    1  <0>         0.0080
     29 C29       -47.6883   60.9174   41.0201 C.3     1  <0>         0.0327
     30 C30       -46.0155   61.6153   42.6274 C.2     1  <0>         0.2133
     31 C31       -47.8439   57.7569   40.9832 C.2     1  <0>         0.0418
     32 N1        -47.1943   61.8395   42.0477 N.am    1  <0>        -0.3117
     33 O1        -47.7388   56.7824   40.2045 O.co2   1  <0>        -0.5498
     34 O2        -45.3252   60.6393   42.3399 O.2     1  <0>        -0.2758
     35 O3        -47.0233   57.9972   41.8828 O.co2   1  <0>        -0.5498
     36 S1        -47.1471   63.0348   39.1399 S.3     1  <0>        -0.1234
     37 H1        -42.1891   66.9776   35.3760 H       1  <0>         0.0618
     38 H2        -38.6051   62.3945   34.9117 H       1  <0>         0.0618
     39 H3        -40.2724   65.5338   35.9388 H       1  <0>         0.0618
     40 H4        -43.6425   67.8659   37.1813 H       1  <0>         0.0618
     41 H5        -39.1876   60.2937   36.0458 H       1  <0>         0.0618
     42 H6        -40.3551   63.7223   33.8035 H       1  <0>         0.0618
     43 H7        -39.8017   64.9840   38.2996 H       1  <0>         0.0620
     44 H8        -43.1681   67.2991   39.5339 H       1  <0>         0.0620
     45 H9        -41.5159   59.5204   36.0734 H       1  <0>         0.0620
     46 H10       -42.6884   62.9476   33.8262 H       1  <0>         0.0620
     47 H11       -42.9926   62.2902   36.9665 H       1  <0>         0.0621
     48 H12       -46.3628   60.3124   35.2321 H       1  <0>         0.0621
     49 H13       -44.4400   63.2593   38.6805 H       1  <0>         0.0629
     50 H14       -47.8179   61.2998   36.9764 H       1  <0>         0.0629
     51 H15       -43.4408   65.4982   41.8494 H       1  <0>         0.0265
     52 H16       -42.1367   64.8792   42.9283 H       1  <0>         0.0265
     53 H17       -43.8853   62.9450   41.4221 H       1  <0>         0.0265
     54 H18       -43.0120   62.7414   42.9822 H       1  <0>         0.0265
     55 H19       -41.1336   63.6597   41.1084 H       1  <0>         0.0268
     56 H20       -42.5062   64.0660   40.0207 H       1  <0>         0.0268
     57 H21       -44.5750   64.5045   43.9383 H       1  <0>         0.0270
     58 H22       -45.5368   64.3392   42.4245 H       1  <0>         0.0270
     59 H23       -41.5711   66.5078   41.1268 H       1  <0>         0.0313
     60 H24       -40.1171   65.5692   40.6011 H       1  <0>         0.0313
     61 H25       -49.7259   60.5592   41.5842 H       1  <0>         0.0287
     62 H26       -48.4874   59.7347   42.6205 H       1  <0>         0.0287
     63 H27       -44.8343   62.0750   44.3494 H       1  <0>         0.0358
     64 H28       -46.4254   62.9330   44.2607 H       1  <0>         0.0358
     65 H29       -49.9026   58.2321   41.1843 H       1  <0>         0.0325
     66 H30       -49.0808   58.9634   39.7509 H       1  <0>         0.0325
     67 H31       -44.1144   60.9239   33.9310 H       1  <0>         0.0361
     68 H32       -43.6554   59.5747   35.0513 H       1  <0>         0.0361
     69 H33       -48.2629   60.9257   38.9547 H       1  <0>         0.0398
     70 H34       -49.1684   62.0986   40.0150 H       1  <0>         0.0398
     71 H35       -46.8430   60.2897   40.7017 H       1  <0>         0.0506
     72 H36       -47.7404   62.6342   42.3128 H       1  <0>         0.1490
@<TRIPOS>BOND
     1     1     3   ar
     2     1     4   ar
     3     2     5   ar
     4     2     6   ar
     5     3     7   ar
     6     4     8   ar
     7     5     9   ar
     8     6    10   ar
     9     7    25   ar
    10     8    25   ar
    11     9    26   ar
    12    10    26   ar
    13    11    13   ar
    14    11    27   ar
    15    12    14   ar
    16    12    27   ar
    17    13    28   ar
    18    14    28   ar
    19    15    16    1
    20    15    17    1
    21    16    18    1
    22    17    19    1
    23    18    21    1
    24    19    25    1
    25    20    22    1
    26    20    29    1
    27    21    30    1
    28    22    31    1
    29    23    26    1
    30    23    27    1
    31    24    29    1
    32    24    36    1
    33    28    36    1
    34    29    32    1
    35    30    32   am
    36    30    34    2
    37    31    33    1
    38    31    35    2
    39     1    37    1
    40     2    38    1
    41     3    39    1
    42     4    40    1
    43     5    41    1
    44     6    42    1
    45     7    43    1
    46     8    44    1
    47     9    45    1
    48    10    46    1
    49    11    47    1
    50    12    48    1
    51    13    49    1
    52    14    50    1
    53    15    51    1
    54    15    52    1
    55    16    53    1
    56    16    54    1
    57    17    55    1
    58    17    56    1
    59    18    57    1
    60    18    58    1
    61    19    59    1
    62    19    60    1
    63    20    61    1
    64    20    62    1
    65    21    63    1
    66    21    64    1
    67    22    65    1
    68    22    66    1
    69    23    67    1
    70    23    68    1
    71    24    69    1
    72    24    70    1
    73    29    71    1
    74    32    72    1
@<TRIPOS>SUBSTRUCTURE
     1 <0>         1 TEMP              0 ****  ****    0 ROOT

