
##########                                Name:        OAP_190_1KVO
##########                    Molecular_Weight:             502.697
##########                DOCK_Rotatable_Bonds:                  17
##########                       Formal_Charge:             -1.0002
##########                     HBond_Acceptors:                   5
##########                        HBond_Donors:                   1
##########                         Heavy_Atoms:                  36
##########                            HA_RMSDs:               8.422
##########                            HA_RMSDh:               7.405
##########                            HA_RMSDm:               5.974
##########                          Grid_Score:            1.727581
##########                     Grid_vdw_energy:          -39.603363
##########                      Grid_es_energy:           41.330944
##########           Internal_energy_repulsive:           27.624884

@<TRIPOS>MOLECULE
OAP_190_1KVO
 72 74 1 0 0
SMALL
USER_CHARGES


@<TRIPOS>ATOM
      1 C1        -38.9473   61.5959   34.4538 C.ar    1  <0>        -0.0617
      2 C2        -39.7655   65.5410   31.2461 C.ar    1  <0>        -0.0617
      3 C3        -39.8588   62.1285   33.5628 C.ar    1  <0>        -0.0615
      4 C4        -39.3625   60.6460   35.3959 C.ar    1  <0>        -0.0615
      5 C5        -41.0615   65.3611   31.6743 C.ar    1  <0>        -0.0615
      6 C6        -38.9000   66.3336   31.9738 C.ar    1  <0>        -0.0615
      7 C7        -41.1887   61.7142   33.6075 C.ar    1  <0>        -0.0586
      8 C8        -40.6904   60.2439   35.4329 C.ar    1  <0>        -0.0586
      9 C9        -41.4932   65.9751   32.8318 C.ar    1  <0>        -0.0583
     10 C10       -39.3361   66.9491   33.1336 C.ar    1  <0>        -0.0583
     11 C11       -41.2635   65.2176   35.8533 C.ar    1  <0>        -0.0572
     12 C12       -41.8388   67.1233   37.1914 C.ar    1  <0>        -0.0572
     13 C13       -41.5086   64.3898   36.9190 C.ar    1  <0>        -0.0481
     14 C14       -42.0872   66.2780   38.2716 C.ar    1  <0>        -0.0481
     15 C15       -44.6719   60.9776   36.3687 C.3     1  <0>        -0.0527
     16 C16       -45.5642   62.0430   36.9440 C.3     1  <0>        -0.0526
     17 C17       -43.9136   61.4924   35.1768 C.3     1  <0>        -0.0491
     18 C18       -46.0906   61.6146   38.2909 C.3     1  <0>        -0.0448
     19 C19       -43.0371   60.3980   34.6129 C.3     1  <0>        -0.0277
     20 C20       -45.0199   65.9274   41.7676 C.3     1  <0>        -0.0286
     21 C21       -46.9060   62.7358   38.9361 C.3     1  <0>         0.0240
     22 C22       -44.7786   67.4246   41.7701 C.3     1  <0>        -0.0115
     23 C23       -41.1346   67.4970   34.8057 C.3     1  <0>        -0.0024
     24 C24       -42.9709   64.8694   40.6941 C.3     1  <0>         0.0168
     25 C25       -41.6130   60.7797   34.5401 C.ar    1  <0>        -0.0474
     26 C26       -40.6381   66.7810   33.5750 C.ar    1  <0>        -0.0431
     27 C27       -41.4165   66.5941   35.9706 C.ar    1  <0>        -0.0430
     28 C28       -41.9207   64.9159   38.1217 C.ar    1  <0>         0.0080
     29 C29       -44.4727   65.2010   40.5324 C.3     1  <0>         0.0327
     30 C30       -46.0956   63.9973   39.1960 C.2     1  <0>         0.2133
     31 C31       -45.5521   68.1314   40.6975 C.2     1  <0>         0.0418
     32 N1        -45.2694   64.0049   40.2415 N.am    1  <0>        -0.3117
     33 O1        -45.0596   69.1406   40.1441 O.co2   1  <0>        -0.5498
     34 O2        -46.2290   64.9779   38.4663 O.2     1  <0>        -0.2758
     35 O3        -46.6532   67.6542   40.3807 O.co2   1  <0>        -0.5498
     36 S1        -42.1985   63.8455   39.3914 S.3     1  <0>        -0.1234
     37 H1        -37.9149   61.9117   34.4241 H       1  <0>         0.0618
     38 H2        -39.4254   65.0618   30.3400 H       1  <0>         0.0618
     39 H3        -39.5425   62.8618   32.8357 H       1  <0>         0.0618
     40 H4        -38.6508   60.2273   36.0920 H       1  <0>         0.0618
     41 H5        -41.7384   64.7408   31.1055 H       1  <0>         0.0618
     42 H6        -37.8831   66.4729   31.6377 H       1  <0>         0.0618
     43 H7        -41.8987   62.1267   32.9060 H       1  <0>         0.0620
     44 H8        -41.0094   59.5108   36.1590 H       1  <0>         0.0620
     45 H9        -42.5098   65.8276   33.1654 H       1  <0>         0.0620
     46 H10       -38.6547   67.5664   33.7001 H       1  <0>         0.0620
     47 H11       -40.9477   64.7947   34.9111 H       1  <0>         0.0621
     48 H12       -41.9733   68.1894   37.2991 H       1  <0>         0.0621
     49 H13       -41.3778   63.3229   36.8139 H       1  <0>         0.0629
     50 H14       -42.4076   66.6859   39.2189 H       1  <0>         0.0629
     51 H15       -43.9535   60.6595   37.1386 H       1  <0>         0.0265
     52 H16       -45.2911   60.1238   36.0562 H       1  <0>         0.0265
     53 H17       -44.9882   62.9730   37.0602 H       1  <0>         0.0265
     54 H18       -46.4107   62.2125   36.2623 H       1  <0>         0.0265
     55 H19       -44.6263   61.8214   34.4062 H       1  <0>         0.0268
     56 H20       -43.2844   62.3407   35.4842 H       1  <0>         0.0268
     57 H21       -46.7343   60.7322   38.1604 H       1  <0>         0.0270
     58 H22       -45.2421   61.3657   38.9452 H       1  <0>         0.0270
     59 H23       -43.1256   59.5151   35.2628 H       1  <0>         0.0313
     60 H24       -43.3853   60.1662   33.5955 H       1  <0>         0.0313
     61 H25       -44.5260   65.5042   42.6546 H       1  <0>         0.0287
     62 H26       -46.1065   65.7604   41.8039 H       1  <0>         0.0287
     63 H27       -47.7337   62.9926   38.2587 H       1  <0>         0.0358
     64 H28       -47.2911   62.3701   39.8995 H       1  <0>         0.0358
     65 H29       -45.0889   67.8262   42.7461 H       1  <0>         0.0325
     66 H30       -43.7065   67.6054   41.6037 H       1  <0>         0.0325
     67 H31       -40.3616   68.2163   35.1140 H       1  <0>         0.0361
     68 H32       -42.0700   68.0130   34.5430 H       1  <0>         0.0361
     69 H33       -42.4303   65.8271   40.7132 H       1  <0>         0.0398
     70 H34       -42.8631   64.3200   41.6410 H       1  <0>         0.0398
     71 H35       -44.5589   65.8768   39.6688 H       1  <0>         0.0506
     72 H36       -45.1929   63.1970   40.8260 H       1  <0>         0.1490
@<TRIPOS>BOND
     1     1     3   ar
     2     1     4   ar
     3     2     5   ar
     4     2     6   ar
     5     3     7   ar
     6     4     8   ar
     7     5     9   ar
     8     6    10   ar
     9     7    25   ar
    10     8    25   ar
    11     9    26   ar
    12    10    26   ar
    13    11    13   ar
    14    11    27   ar
    15    12    14   ar
    16    12    27   ar
    17    13    28   ar
    18    14    28   ar
    19    15    16    1
    20    15    17    1
    21    16    18    1
    22    17    19    1
    23    18    21    1
    24    19    25    1
    25    20    22    1
    26    20    29    1
    27    21    30    1
    28    22    31    1
    29    23    26    1
    30    23    27    1
    31    24    29    1
    32    24    36    1
    33    28    36    1
    34    29    32    1
    35    30    32   am
    36    30    34    2
    37    31    33    1
    38    31    35    2
    39     1    37    1
    40     2    38    1
    41     3    39    1
    42     4    40    1
    43     5    41    1
    44     6    42    1
    45     7    43    1
    46     8    44    1
    47     9    45    1
    48    10    46    1
    49    11    47    1
    50    12    48    1
    51    13    49    1
    52    14    50    1
    53    15    51    1
    54    15    52    1
    55    16    53    1
    56    16    54    1
    57    17    55    1
    58    17    56    1
    59    18    57    1
    60    18    58    1
    61    19    59    1
    62    19    60    1
    63    20    61    1
    64    20    62    1
    65    21    63    1
    66    21    64    1
    67    22    65    1
    68    22    66    1
    69    23    67    1
    70    23    68    1
    71    24    69    1
    72    24    70    1
    73    29    71    1
    74    32    72    1
@<TRIPOS>SUBSTRUCTURE
     1 <0>         1 TEMP              0 ****  ****    0 ROOT

