
##########                                Name:        OAP_190_1KVO
##########                    Molecular_Weight:             502.697
##########                DOCK_Rotatable_Bonds:                  17
##########                       Formal_Charge:             -1.0002
##########                     HBond_Acceptors:                   5
##########                        HBond_Donors:                   1
##########                         Heavy_Atoms:                  36
##########                            HA_RMSDs:              10.408
##########                            HA_RMSDh:               9.075
##########                            HA_RMSDm:               7.690
##########                          Grid_Score:            1.937004
##########                     Grid_vdw_energy:          -44.145050
##########                      Grid_es_energy:           46.082054
##########           Internal_energy_repulsive:           26.756517

@<TRIPOS>MOLECULE
OAP_190_1KVO
 72 74 1 0 0
SMALL
USER_CHARGES


@<TRIPOS>ATOM
      1 C1        -41.8017   66.7532   35.7173 C.ar    1  <0>        -0.0617
      2 C2        -39.4179   62.1046   33.9457 C.ar    1  <0>        -0.0617
      3 C3        -40.7320   65.9187   35.9779 C.ar    1  <0>        -0.0615
      4 C4        -42.5054   67.3406   36.7766 C.ar    1  <0>        -0.0615
      5 C5        -39.3853   61.4282   35.1445 C.ar    1  <0>        -0.0615
      6 C6        -40.6180   62.2902   33.2883 C.ar    1  <0>        -0.0615
      7 C7        -40.3594   65.6679   37.2972 C.ar    1  <0>        -0.0586
      8 C8        -42.1270   67.0804   38.0863 C.ar    1  <0>        -0.0586
      9 C9        -40.5545   60.9361   35.6866 C.ar    1  <0>        -0.0583
     10 C10       -41.7887   61.7946   33.8339 C.ar    1  <0>        -0.0583
     11 C11       -43.3271   62.7127   36.7872 C.ar    1  <0>        -0.0572
     12 C12       -45.1104   61.1125   36.8968 C.ar    1  <0>        -0.0572
     13 C13       -44.0614   63.5895   37.5442 C.ar    1  <0>        -0.0481
     14 C14       -45.8529   62.0067   37.6663 C.ar    1  <0>        -0.0481
     15 C15       -42.3940   65.0492   41.2999 C.3     1  <0>        -0.0527
     16 C16       -42.9304   63.8309   42.0002 C.3     1  <0>        -0.0526
     17 C17       -41.3704   64.6719   40.2653 C.3     1  <0>        -0.0491
     18 C18       -43.9344   64.2306   43.0523 C.3     1  <0>        -0.0448
     19 C19       -40.6825   65.9131   39.7458 C.3     1  <0>        -0.0277
     20 C20       -48.6055   61.7458   41.1786 C.3     1  <0>        -0.0286
     21 C21       -44.7867   63.0323   43.4717 C.3     1  <0>         0.0240
     22 C22       -49.1648   60.6874   40.2477 C.3     1  <0>        -0.0115
     23 C23       -43.0360   60.5153   35.6056 C.3     1  <0>        -0.0024
     24 C24       -47.5961   63.4308   39.5624 C.3     1  <0>         0.0168
     25 C25       -41.0528   66.2381   38.3542 C.ar    1  <0>        -0.0474
     26 C26       -41.7716   61.1085   35.0369 C.ar    1  <0>        -0.0431
     27 C27       -43.8378   61.4662   36.4449 C.ar    1  <0>        -0.0430
     28 C28       -45.3170   63.2385   37.9841 C.ar    1  <0>         0.0080
     29 C29       -47.3116   62.4038   40.6831 C.3     1  <0>         0.0327
     30 C30       -45.5158   62.3751   42.3089 C.2     1  <0>         0.2133
     31 C31       -48.2876   59.4740   40.1669 C.2     1  <0>         0.0418
     32 N1        -46.5758   63.0030   41.8010 N.am    1  <0>        -0.3117
     33 O1        -48.5161   58.6036   39.2966 O.co2   1  <0>        -0.5498
     34 O2        -45.1377   61.2870   41.8791 O.2     1  <0>        -0.2758
     35 O3        -47.3379   59.4035   40.9629 O.co2   1  <0>        -0.5498
     36 S1        -46.1680   64.3630   38.9040 S.3     1  <0>        -0.1234
     37 H1        -42.0953   66.9527   34.6973 H       1  <0>         0.0618
     38 H2        -38.5038   62.4903   33.5191 H       1  <0>         0.0618
     39 H3        -40.1877   65.4632   35.1639 H       1  <0>         0.0618
     40 H4        -43.3408   67.9946   36.5744 H       1  <0>         0.0618
     41 H5        -38.4468   61.2834   35.6590 H       1  <0>         0.0618
     42 H6        -40.6425   62.8222   32.3488 H       1  <0>         0.0618
     43 H7        -39.5189   65.0205   37.4992 H       1  <0>         0.0620
     44 H8        -42.6697   67.5345   38.9022 H       1  <0>         0.0620
     45 H9        -40.5241   60.4096   36.6291 H       1  <0>         0.0620
     46 H10       -42.7250   61.9440   33.3167 H       1  <0>         0.0620
     47 H11       -42.3395   62.9943   36.4529 H       1  <0>         0.0621
     48 H12       -45.5203   60.1444   36.6498 H       1  <0>         0.0621
     49 H13       -43.6534   64.5574   37.7954 H       1  <0>         0.0629
     50 H14       -46.8403   61.7377   38.0114 H       1  <0>         0.0629
     51 H15       -43.2259   65.5716   40.8050 H       1  <0>         0.0265
     52 H16       -41.9237   65.7100   42.0430 H       1  <0>         0.0265
     53 H17       -43.4197   63.1766   41.2637 H       1  <0>         0.0265
     54 H18       -42.0986   63.2941   42.4798 H       1  <0>         0.0265
     55 H19       -40.6230   64.0043   40.7190 H       1  <0>         0.0268
     56 H20       -41.8687   64.1557   39.4315 H       1  <0>         0.0268
     57 H21       -43.3981   64.6151   43.9324 H       1  <0>         0.0270
     58 H22       -44.5911   65.0124   42.6430 H       1  <0>         0.0270
     59 H23       -40.9683   66.7604   40.3864 H       1  <0>         0.0313
     60 H24       -39.5956   65.7477   39.7846 H       1  <0>         0.0313
     61 H25       -49.3646   62.5342   41.2885 H       1  <0>         0.0287
     62 H26       -48.3919   61.2665   42.1453 H       1  <0>         0.0287
     63 H27       -44.1245   62.2830   43.9298 H       1  <0>         0.0358
     64 H28       -45.5381   63.3815   44.1954 H       1  <0>         0.0358
     65 H29       -50.1522   60.3798   40.6224 H       1  <0>         0.0325
     66 H30       -49.2542   61.1208   39.2406 H       1  <0>         0.0325
     67 H31       -43.6665   60.1918   34.7643 H       1  <0>         0.0361
     68 H32       -42.7543   59.6603   36.2378 H       1  <0>         0.0361
     69 H33       -48.0331   62.8746   38.7200 H       1  <0>         0.0398
     70 H34       -48.2999   64.1691   39.9740 H       1  <0>         0.0398
     71 H35       -46.6733   61.6223   40.2451 H       1  <0>         0.0506
     72 H36       -46.8687   63.8804   42.1812 H       1  <0>         0.1490
@<TRIPOS>BOND
     1     1     3   ar
     2     1     4   ar
     3     2     5   ar
     4     2     6   ar
     5     3     7   ar
     6     4     8   ar
     7     5     9   ar
     8     6    10   ar
     9     7    25   ar
    10     8    25   ar
    11     9    26   ar
    12    10    26   ar
    13    11    13   ar
    14    11    27   ar
    15    12    14   ar
    16    12    27   ar
    17    13    28   ar
    18    14    28   ar
    19    15    16    1
    20    15    17    1
    21    16    18    1
    22    17    19    1
    23    18    21    1
    24    19    25    1
    25    20    22    1
    26    20    29    1
    27    21    30    1
    28    22    31    1
    29    23    26    1
    30    23    27    1
    31    24    29    1
    32    24    36    1
    33    28    36    1
    34    29    32    1
    35    30    32   am
    36    30    34    2
    37    31    33    1
    38    31    35    2
    39     1    37    1
    40     2    38    1
    41     3    39    1
    42     4    40    1
    43     5    41    1
    44     6    42    1
    45     7    43    1
    46     8    44    1
    47     9    45    1
    48    10    46    1
    49    11    47    1
    50    12    48    1
    51    13    49    1
    52    14    50    1
    53    15    51    1
    54    15    52    1
    55    16    53    1
    56    16    54    1
    57    17    55    1
    58    17    56    1
    59    18    57    1
    60    18    58    1
    61    19    59    1
    62    19    60    1
    63    20    61    1
    64    20    62    1
    65    21    63    1
    66    21    64    1
    67    22    65    1
    68    22    66    1
    69    23    67    1
    70    23    68    1
    71    24    69    1
    72    24    70    1
    73    29    71    1
    74    32    72    1
@<TRIPOS>SUBSTRUCTURE
     1 <0>         1 TEMP              0 ****  ****    0 ROOT

