
##########                                Name:        OAP_190_1KVO
##########                    Molecular_Weight:             502.697
##########                DOCK_Rotatable_Bonds:                  17
##########                       Formal_Charge:             -1.0002
##########                     HBond_Acceptors:                   5
##########                        HBond_Donors:                   1
##########                         Heavy_Atoms:                  36
##########                            HA_RMSDs:               0.636
##########                            HA_RMSDh:               0.636
##########                            HA_RMSDm:               0.585
##########                          Grid_Score:            0.305389
##########                     Grid_vdw_energy:          -64.086449
##########                      Grid_es_energy:           64.391838
##########           Internal_energy_repulsive:           23.315140

@<TRIPOS>MOLECULE
OAP_190_1KVO
 72 74 1 0 0
SMALL
USER_CHARGES


@<TRIPOS>ATOM
      1 C1        -44.0961   60.8611   35.3525 C.ar    1  <0>        -0.0617
      2 C2        -43.5310   63.7558   40.1428 C.ar    1  <0>        -0.0617
      3 C3        -43.2258   61.0136   36.4146 C.ar    1  <0>        -0.0615
      4 C4        -43.6312   60.3480   34.1348 C.ar    1  <0>        -0.0615
      5 C5        -42.1995   63.4648   39.9480 C.ar    1  <0>        -0.0615
      6 C6        -44.1008   64.8443   39.5124 C.ar    1  <0>        -0.0615
      7 C7        -41.8878   60.6534   36.2659 C.ar    1  <0>        -0.0586
      8 C8        -42.2956   59.9962   33.9978 C.ar    1  <0>        -0.0586
      9 C9        -41.4362   64.2638   39.1220 C.ar    1  <0>        -0.0583
     10 C10       -43.3326   65.6444   38.6856 C.ar    1  <0>        -0.0583
     11 C11       -41.5063   64.6268   35.7668 C.ar    1  <0>        -0.0572
     12 C12       -40.6456   66.7977   35.2201 C.ar    1  <0>        -0.0572
     13 C13       -41.4831   64.2786   34.4404 C.ar    1  <0>        -0.0481
     14 C14       -40.6233   66.4394   33.8732 C.ar    1  <0>        -0.0481
     15 C15       -38.4466   60.9992   33.3647 C.3     1  <0>        -0.0527
     16 C16       -37.7620   62.2998   33.0449 C.3     1  <0>        -0.0526
     17 C17       -39.1222   61.0591   34.7066 C.3     1  <0>        -0.0491
     18 C18       -37.2331   62.2802   31.6326 C.3     1  <0>        -0.0448
     19 C19       -39.9818   59.8321   34.9048 C.3     1  <0>        -0.0277
     20 C20       -38.4663   67.3924   29.9127 C.3     1  <0>        -0.0286
     21 C21       -36.3746   63.5154   31.3577 C.3     1  <0>         0.0240
     22 C22       -38.9591   68.8009   30.1830 C.3     1  <0>        -0.0115
     23 C23       -41.1359   66.2701   37.6301 C.3     1  <0>        -0.0024
     24 C24       -40.4121   66.1386   30.9671 C.3     1  <0>         0.0168
     25 C25       -41.4144   60.1510   35.0631 C.ar    1  <0>        -0.0474
     26 C26       -41.9909   65.3671   38.4829 C.ar    1  <0>        -0.0431
     27 C27       -41.0965   65.8892   36.1792 C.ar    1  <0>        -0.0430
     28 C28       -41.0418   65.1786   33.4978 C.ar    1  <0>         0.0080
     29 C29       -38.8820   66.3632   30.9712 C.3     1  <0>         0.0327
     30 C30       -37.1136   64.8258   31.5862 C.2     1  <0>         0.2133
     31 C31       -38.3948   69.3722   31.4493 C.2     1  <0>         0.0418
     32 N1        -38.1441   65.1090   30.7901 N.am    1  <0>        -0.3117
     33 O1        -39.1706   69.8110   32.3283 O.co2   1  <0>        -0.5498
     34 O2        -36.7431   65.5977   32.4687 O.2     1  <0>        -0.2758
     35 O3        -37.1609   69.3541   31.5822 O.co2   1  <0>        -0.5498
     36 S1        -41.0443   64.6904   31.8864 S.3     1  <0>        -0.1234
     37 H1        -45.1346   61.1373   35.4611 H       1  <0>         0.0618
     38 H2        -44.1304   63.1321   40.7894 H       1  <0>         0.0618
     39 H3        -43.5804   61.4097   37.3546 H       1  <0>         0.0618
     40 H4        -44.3106   60.2266   33.3041 H       1  <0>         0.0618
     41 H5        -41.7538   62.6133   40.4406 H       1  <0>         0.0618
     42 H6        -45.1457   65.0708   39.6648 H       1  <0>         0.0618
     43 H7        -41.2101   60.7671   37.0991 H       1  <0>         0.0620
     44 H8        -41.9383   59.5999   33.0589 H       1  <0>         0.0620
     45 H9        -40.3931   64.0290   38.9696 H       1  <0>         0.0620
     46 H10       -43.7835   66.4935   38.1934 H       1  <0>         0.0620
     47 H11       -41.8472   63.9109   36.5001 H       1  <0>         0.0621
     48 H12       -40.3134   67.7800   35.5221 H       1  <0>         0.0621
     49 H13       -41.8120   63.2962   34.1352 H       1  <0>         0.0629
     50 H14       -40.2811   67.1430   33.1288 H       1  <0>         0.0629
     51 H15       -39.2033   60.7949   32.5929 H       1  <0>         0.0265
     52 H16       -37.6963   60.1949   33.3784 H       1  <0>         0.0265
     53 H17       -38.4837   63.1234   33.1492 H       1  <0>         0.0265
     54 H18       -36.9246   62.4486   33.7424 H       1  <0>         0.0265
     55 H19       -38.3585   61.1001   35.4972 H       1  <0>         0.0268
     56 H20       -39.7539   61.9582   34.7564 H       1  <0>         0.0268
     57 H21       -36.6196   61.3781   31.4917 H       1  <0>         0.0270
     58 H22       -38.0811   62.2694   30.9320 H       1  <0>         0.0270
     59 H23       -39.8673   59.1839   34.0235 H       1  <0>         0.0313
     60 H24       -39.6405   59.3141   35.8133 H       1  <0>         0.0313
     61 H25       -38.8806   67.0692   28.9464 H       1  <0>         0.0287
     62 H26       -37.3671   67.4194   29.8813 H       1  <0>         0.0287
     63 H27       -35.5067   63.4880   32.0330 H       1  <0>         0.0358
     64 H28       -36.0508   63.4820   30.3069 H       1  <0>         0.0358
     65 H29       -38.6546   69.4440   29.3441 H       1  <0>         0.0325
     66 H30       -40.0554   68.7762   30.2697 H       1  <0>         0.0325
     67 H31       -41.5437   67.2892   37.7017 H       1  <0>         0.0361
     68 H32       -40.1077   66.2294   38.0190 H       1  <0>         0.0361
     69 H33       -40.8693   67.0311   31.4192 H       1  <0>         0.0398
     70 H34       -40.7155   66.0107   29.9176 H       1  <0>         0.0398
     71 H35       -38.6210   66.7631   31.9621 H       1  <0>         0.0506
     72 H36       -38.4133   64.4681   30.0712 H       1  <0>         0.1490
@<TRIPOS>BOND
     1     1     3   ar
     2     1     4   ar
     3     2     5   ar
     4     2     6   ar
     5     3     7   ar
     6     4     8   ar
     7     5     9   ar
     8     6    10   ar
     9     7    25   ar
    10     8    25   ar
    11     9    26   ar
    12    10    26   ar
    13    11    13   ar
    14    11    27   ar
    15    12    14   ar
    16    12    27   ar
    17    13    28   ar
    18    14    28   ar
    19    15    16    1
    20    15    17    1
    21    16    18    1
    22    17    19    1
    23    18    21    1
    24    19    25    1
    25    20    22    1
    26    20    29    1
    27    21    30    1
    28    22    31    1
    29    23    26    1
    30    23    27    1
    31    24    29    1
    32    24    36    1
    33    28    36    1
    34    29    32    1
    35    30    32   am
    36    30    34    2
    37    31    33    1
    38    31    35    2
    39     1    37    1
    40     2    38    1
    41     3    39    1
    42     4    40    1
    43     5    41    1
    44     6    42    1
    45     7    43    1
    46     8    44    1
    47     9    45    1
    48    10    46    1
    49    11    47    1
    50    12    48    1
    51    13    49    1
    52    14    50    1
    53    15    51    1
    54    15    52    1
    55    16    53    1
    56    16    54    1
    57    17    55    1
    58    17    56    1
    59    18    57    1
    60    18    58    1
    61    19    59    1
    62    19    60    1
    63    20    61    1
    64    20    62    1
    65    21    63    1
    66    21    64    1
    67    22    65    1
    68    22    66    1
    69    23    67    1
    70    23    68    1
    71    24    69    1
    72    24    70    1
    73    29    71    1
    74    32    72    1
@<TRIPOS>SUBSTRUCTURE
     1 <0>         1 TEMP              0 ****  ****    0 ROOT

