
##########                                Name:        OAP_190_1KVO
##########                    Molecular_Weight:             502.697
##########                DOCK_Rotatable_Bonds:                  17
##########                       Formal_Charge:             -1.0002
##########                     HBond_Acceptors:                   5
##########                        HBond_Donors:                   1
##########                         Heavy_Atoms:                  36
##########                            HA_RMSDs:               0.710
##########                            HA_RMSDh:               0.710
##########                            HA_RMSDm:               0.659
##########                          Grid_Score:           -0.114883
##########                     Grid_vdw_energy:          -65.357559
##########                      Grid_es_energy:           65.242676
##########           Internal_energy_repulsive:           27.714470

@<TRIPOS>MOLECULE
OAP_190_1KVO
 72 74 1 0 0
SMALL
USER_CHARGES


@<TRIPOS>ATOM
      1 C1        -44.1778   60.8008   34.9922 C.ar    1  <0>        -0.0617
      2 C2        -43.5255   63.6167   39.7023 C.ar    1  <0>        -0.0617
      3 C3        -43.4337   61.2511   36.0656 C.ar    1  <0>        -0.0615
      4 C4        -43.5534   60.0991   33.9530 C.ar    1  <0>        -0.0615
      5 C5        -42.1602   63.7910   39.7314 C.ar    1  <0>        -0.0615
      6 C6        -44.2986   64.3532   38.8266 C.ar    1  <0>        -0.0615
      7 C7        -42.0632   61.0016   36.1069 C.ar    1  <0>        -0.0586
      8 C8        -42.1872   59.8598   34.0037 C.ar    1  <0>        -0.0586
      9 C9        -41.5666   64.7037   38.8841 C.ar    1  <0>        -0.0583
     10 C10       -43.7008   65.2687   37.9789 C.ar    1  <0>        -0.0583
     11 C11       -41.7283   64.7481   35.3168 C.ar    1  <0>        -0.0572
     12 C12       -41.0694   66.9777   34.7272 C.ar    1  <0>        -0.0572
     13 C13       -41.5677   64.3513   34.0138 C.ar    1  <0>        -0.0481
     14 C14       -40.9070   66.5698   33.4043 C.ar    1  <0>        -0.0481
     15 C15       -38.3933   61.1561   33.5264 C.3     1  <0>        -0.0527
     16 C16       -37.7656   62.4422   33.0635 C.3     1  <0>        -0.0526
     17 C17       -39.1945   61.3659   34.7812 C.3     1  <0>        -0.0491
     18 C18       -37.1162   62.2530   31.7155 C.3     1  <0>        -0.0448
     19 C19       -39.9708   60.1121   35.1115 C.3     1  <0>        -0.0277
     20 C20       -38.3800   67.5409   29.7200 C.3     1  <0>        -0.0286
     21 C21       -36.4159   63.5359   31.2659 C.3     1  <0>         0.0240
     22 C22       -38.8909   68.9253   30.0696 C.3     1  <0>        -0.0115
     23 C23       -41.6797   66.4967   37.1195 C.3     1  <0>        -0.0024
     24 C24       -40.3333   66.1457   30.5615 C.3     1  <0>         0.0168
     25 C25       -41.4328   60.3140   35.0806 C.ar    1  <0>        -0.0474
     26 C26       -42.3289   65.4583   37.9994 C.ar    1  <0>        -0.0431
     27 C27       -41.4900   66.0641   35.6952 C.ar    1  <0>        -0.0430
     28 C28       -41.1568   65.2560   33.0620 C.ar    1  <0>         0.0080
     29 C29       -38.8208   66.4401   30.6930 C.3     1  <0>         0.0327
     30 C30       -37.2440   64.7899   31.5051 C.2     1  <0>         0.2133
     31 C31       -38.4662   69.3639   31.4391 C.2     1  <0>         0.0418
     32 N1        -38.0099   65.2324   30.5083 N.am    1  <0>        -0.3117
     33 O1        -39.3076   69.8750   32.2124 O.co2   1  <0>        -0.5498
     34 O2        -37.1786   65.3764   32.5837 O.2     1  <0>        -0.2758
     35 O3        -37.2833   69.1667   31.7592 O.co2   1  <0>        -0.5498
     36 S1        -40.9850   64.7057   31.4801 S.3     1  <0>        -0.1234
     37 H1        -45.2404   60.9898   34.9543 H       1  <0>         0.0618
     38 H2        -43.9925   62.9032   40.3650 H       1  <0>         0.0618
     39 H3        -43.9114   61.7934   36.8682 H       1  <0>         0.0618
     40 H4        -44.1340   59.7450   33.1140 H       1  <0>         0.0618
     41 H5        -41.5554   63.2147   40.4159 H       1  <0>         0.0618
     42 H6        -45.3694   64.2147   38.8036 H       1  <0>         0.0618
     43 H7        -41.4840   61.3485   36.9498 H       1  <0>         0.0620
     44 H8        -41.7069   59.3180   33.2024 H       1  <0>         0.0620
     45 H9        -40.4948   64.8339   38.9083 H       1  <0>         0.0620
     46 H10       -44.3096   65.8409   37.2946 H       1  <0>         0.0620
     47 H11       -42.0439   64.0290   36.0581 H       1  <0>         0.0621
     48 H12       -40.8694   68.0023   35.0039 H       1  <0>         0.0621
     49 H13       -41.7641   63.3268   33.7343 H       1  <0>         0.0629
     50 H14       -40.5880   67.2765   32.6525 H       1  <0>         0.0629
     51 H15       -39.0595   60.7794   32.7364 H       1  <0>         0.0265
     52 H16       -37.5980   60.4235   33.7290 H       1  <0>         0.0265
     53 H17       -38.5434   63.2161   32.9846 H       1  <0>         0.0265
     54 H18       -37.0026   62.7546   33.7916 H       1  <0>         0.0265
     55 H19       -38.5140   61.6023   35.6125 H       1  <0>         0.0268
     56 H20       -39.8962   62.1994   34.6300 H       1  <0>         0.0268
     57 H21       -36.3738   61.4444   31.7852 H       1  <0>         0.0270
     58 H22       -37.8893   61.9891   30.9786 H       1  <0>         0.0270
     59 H23       -39.7127   59.3407   34.3710 H       1  <0>         0.0313
     60 H24       -39.6881   59.7871   36.1237 H       1  <0>         0.0313
     61 H25       -38.7620   67.2820   28.7216 H       1  <0>         0.0287
     62 H26       -37.2806   67.5755   29.7248 H       1  <0>         0.0287
     63 H27       -35.4770   63.6311   31.8311 H       1  <0>         0.0358
     64 H28       -36.2143   63.4576   30.1874 H       1  <0>         0.0358
     65 H29       -38.4916   69.6402   29.3350 H       1  <0>         0.0325
     66 H30       -39.9902   68.9109   30.0332 H       1  <0>         0.0325
     67 H31       -42.3218   67.3898   37.1196 H       1  <0>         0.0361
     68 H32       -40.6887   66.7243   37.5392 H       1  <0>         0.0361
     69 H33       -40.8671   67.0327   30.9333 H       1  <0>         0.0398
     70 H34       -40.5341   65.9647   29.4952 H       1  <0>         0.0398
     71 H35       -38.6539   66.7998   31.7190 H       1  <0>         0.0506
     72 H36       -38.0314   64.7423   29.6369 H       1  <0>         0.1490
@<TRIPOS>BOND
     1     1     3   ar
     2     1     4   ar
     3     2     5   ar
     4     2     6   ar
     5     3     7   ar
     6     4     8   ar
     7     5     9   ar
     8     6    10   ar
     9     7    25   ar
    10     8    25   ar
    11     9    26   ar
    12    10    26   ar
    13    11    13   ar
    14    11    27   ar
    15    12    14   ar
    16    12    27   ar
    17    13    28   ar
    18    14    28   ar
    19    15    16    1
    20    15    17    1
    21    16    18    1
    22    17    19    1
    23    18    21    1
    24    19    25    1
    25    20    22    1
    26    20    29    1
    27    21    30    1
    28    22    31    1
    29    23    26    1
    30    23    27    1
    31    24    29    1
    32    24    36    1
    33    28    36    1
    34    29    32    1
    35    30    32   am
    36    30    34    2
    37    31    33    1
    38    31    35    2
    39     1    37    1
    40     2    38    1
    41     3    39    1
    42     4    40    1
    43     5    41    1
    44     6    42    1
    45     7    43    1
    46     8    44    1
    47     9    45    1
    48    10    46    1
    49    11    47    1
    50    12    48    1
    51    13    49    1
    52    14    50    1
    53    15    51    1
    54    15    52    1
    55    16    53    1
    56    16    54    1
    57    17    55    1
    58    17    56    1
    59    18    57    1
    60    18    58    1
    61    19    59    1
    62    19    60    1
    63    20    61    1
    64    20    62    1
    65    21    63    1
    66    21    64    1
    67    22    65    1
    68    22    66    1
    69    23    67    1
    70    23    68    1
    71    24    69    1
    72    24    70    1
    73    29    71    1
    74    32    72    1
@<TRIPOS>SUBSTRUCTURE
     1 <0>         1 TEMP              0 ****  ****    0 ROOT

