
##########                                Name:        OAP_190_1KVO
##########                    Molecular_Weight:             502.697
##########                DOCK_Rotatable_Bonds:                  17
##########                       Formal_Charge:             -1.0002
##########                     HBond_Acceptors:                   5
##########                        HBond_Donors:                   1
##########                         Heavy_Atoms:                  36
##########                            HA_RMSDs:              11.334
##########                            HA_RMSDh:              10.182
##########                            HA_RMSDm:               8.598
##########                          Grid_Score:            0.555546
##########                     Grid_vdw_energy:          -48.399429
##########                      Grid_es_energy:           48.954975
##########           Internal_energy_repulsive:           30.301241

@<TRIPOS>MOLECULE
OAP_190_1KVO
 72 74 1 0 0
SMALL
USER_CHARGES


@<TRIPOS>ATOM
      1 C1        -42.6965   66.6099   41.0478 C.ar    1  <0>        -0.0617
      2 C2        -39.6053   62.1582   34.8997 C.ar    1  <0>        -0.0617
      3 C3        -41.8462   65.5439   40.8260 C.ar    1  <0>        -0.0615
      4 C4        -43.6105   66.5672   42.1084 C.ar    1  <0>        -0.0615
      5 C5        -39.9549   60.9658   35.4924 C.ar    1  <0>        -0.0615
      6 C6        -40.5712   62.9424   34.3006 C.ar    1  <0>        -0.0615
      7 C7        -41.9039   64.4310   41.6628 C.ar    1  <0>        -0.0586
      8 C8        -43.6610   65.4518   42.9329 C.ar    1  <0>        -0.0586
      9 C9        -41.2723   60.5563   35.4856 C.ar    1  <0>        -0.0583
     10 C10       -41.8913   62.5287   34.2942 C.ar    1  <0>        -0.0583
     11 C11       -43.9642   61.9824   37.0494 C.ar    1  <0>        -0.0572
     12 C12       -45.8889   60.9757   36.0322 C.ar    1  <0>        -0.0572
     13 C13       -44.7320   62.3886   38.1107 C.ar    1  <0>        -0.0481
     14 C14       -46.6654   61.3901   37.1131 C.ar    1  <0>        -0.0481
     15 C15       -44.9968   61.8638   43.5175 C.3     1  <0>        -0.0527
     16 C16       -45.6844   60.6268   43.0082 C.3     1  <0>        -0.0526
     17 C17       -43.6462   62.0338   42.8791 C.3     1  <0>        -0.0491
     18 C18       -46.9805   60.4058   43.7471 C.3     1  <0>        -0.0448
     19 C19       -42.8984   63.1626   43.5502 C.3     1  <0>        -0.0277
     20 C20       -50.2769   60.0141   39.1455 C.3     1  <0>        -0.0286
     21 C21       -47.8046   59.3043   43.0793 C.3     1  <0>         0.0240
     22 C22       -50.3886   59.8554   37.6415 C.3     1  <0>        -0.0115
     23 C23       -43.6852   60.8465   34.8264 C.3     1  <0>        -0.0024
     24 C24       -48.6437   61.9636   39.1978 C.3     1  <0>         0.0168
     25 C25       -42.8094   64.3743   42.7117 C.ar    1  <0>        -0.0474
     26 C26       -42.2579   61.3297   34.8827 C.ar    1  <0>        -0.0431
     27 C27       -44.5267   61.2775   35.9917 C.ar    1  <0>        -0.0430
     28 C28       -46.0753   62.0925   38.1447 C.ar    1  <0>         0.0080
     29 C29       -48.9056   60.5019   39.6296 C.3     1  <0>         0.0327
     30 C30       -47.8982   59.4544   41.5679 C.2     1  <0>         0.2133
     31 C31       -49.4256   58.8420   37.0992 C.2     1  <0>         0.0418
     32 N1        -48.7781   60.3283   41.0801 N.am    1  <0>        -0.3117
     33 O1        -48.9885   58.9678   35.9329 O.co2   1  <0>        -0.5498
     34 O2        -47.1916   58.7657   40.8343 O.2     1  <0>        -0.2758
     35 O3        -49.0761   57.9247   37.8588 O.co2   1  <0>        -0.5498
     36 S1        -46.9620   62.6254   39.4731 S.3     1  <0>        -0.1234
     37 H1        -42.6564   67.4760   40.4038 H       1  <0>         0.0618
     38 H2        -38.5746   62.4806   34.9033 H       1  <0>         0.0618
     39 H3        -41.1409   65.5728   40.0087 H       1  <0>         0.0618
     40 H4        -44.2747   67.4005   42.2842 H       1  <0>         0.0618
     41 H5        -39.1997   60.3525   35.9615 H       1  <0>         0.0618
     42 H6        -40.2961   63.8783   33.8371 H       1  <0>         0.0618
     43 H7        -41.2342   63.6012   41.4921 H       1  <0>         0.0620
     44 H8        -44.3655   65.4202   43.7509 H       1  <0>         0.0620
     45 H9        -41.5418   59.6219   35.9553 H       1  <0>         0.0620
     46 H10       -42.6432   63.1465   33.8259 H       1  <0>         0.0620
     47 H11       -42.9092   62.2130   37.0353 H       1  <0>         0.0621
     48 H12       -46.3422   60.4200   35.2246 H       1  <0>         0.0621
     49 H13       -44.2815   62.9420   38.9213 H       1  <0>         0.0629
     50 H14       -47.7208   61.1634   37.1434 H       1  <0>         0.0629
     51 H15       -45.6170   62.7405   43.2795 H       1  <0>         0.0265
     52 H16       -44.8685   61.7781   44.6066 H       1  <0>         0.0265
     53 H17       -45.8959   60.7465   41.9353 H       1  <0>         0.0265
     54 H18       -45.0274   59.7583   43.1631 H       1  <0>         0.0265
     55 H19       -43.0722   61.1017   42.9876 H       1  <0>         0.0268
     56 H20       -43.7747   62.2661   41.8116 H       1  <0>         0.0268
     57 H21       -46.7571   60.1090   44.7825 H       1  <0>         0.0270
     58 H22       -47.5602   61.3406   43.7423 H       1  <0>         0.0270
     59 H23       -43.4269   63.4231   44.4790 H       1  <0>         0.0313
     60 H24       -41.8770   62.8182   43.7695 H       1  <0>         0.0313
     61 H25       -51.0291   60.7507   39.4642 H       1  <0>         0.0287
     62 H26       -50.4672   59.0325   39.6037 H       1  <0>         0.0287
     63 H27       -47.3288   58.3374   43.2998 H       1  <0>         0.0358
     64 H28       -48.8237   59.3394   43.4920 H       1  <0>         0.0358
     65 H29       -51.4110   59.5291   37.4002 H       1  <0>         0.0325
     66 H30       -50.1743   60.8266   37.1714 H       1  <0>         0.0325
     67 H31       -44.1431   61.2490   33.9108 H       1  <0>         0.0361
     68 H32       -43.6700   59.7468   34.8081 H       1  <0>         0.0361
     69 H33       -48.8382   62.0192   38.1165 H       1  <0>         0.0398
     70 H34       -49.3365   62.5972   39.7710 H       1  <0>         0.0398
     71 H35       -48.1313   59.8843   39.1509 H       1  <0>         0.0506
     72 H36       -49.3498   60.8642   41.7014 H       1  <0>         0.1490
@<TRIPOS>BOND
     1     1     3   ar
     2     1     4   ar
     3     2     5   ar
     4     2     6   ar
     5     3     7   ar
     6     4     8   ar
     7     5     9   ar
     8     6    10   ar
     9     7    25   ar
    10     8    25   ar
    11     9    26   ar
    12    10    26   ar
    13    11    13   ar
    14    11    27   ar
    15    12    14   ar
    16    12    27   ar
    17    13    28   ar
    18    14    28   ar
    19    15    16    1
    20    15    17    1
    21    16    18    1
    22    17    19    1
    23    18    21    1
    24    19    25    1
    25    20    22    1
    26    20    29    1
    27    21    30    1
    28    22    31    1
    29    23    26    1
    30    23    27    1
    31    24    29    1
    32    24    36    1
    33    28    36    1
    34    29    32    1
    35    30    32   am
    36    30    34    2
    37    31    33    1
    38    31    35    2
    39     1    37    1
    40     2    38    1
    41     3    39    1
    42     4    40    1
    43     5    41    1
    44     6    42    1
    45     7    43    1
    46     8    44    1
    47     9    45    1
    48    10    46    1
    49    11    47    1
    50    12    48    1
    51    13    49    1
    52    14    50    1
    53    15    51    1
    54    15    52    1
    55    16    53    1
    56    16    54    1
    57    17    55    1
    58    17    56    1
    59    18    57    1
    60    18    58    1
    61    19    59    1
    62    19    60    1
    63    20    61    1
    64    20    62    1
    65    21    63    1
    66    21    64    1
    67    22    65    1
    68    22    66    1
    69    23    67    1
    70    23    68    1
    71    24    69    1
    72    24    70    1
    73    29    71    1
    74    32    72    1
@<TRIPOS>SUBSTRUCTURE
     1 <0>         1 TEMP              0 ****  ****    0 ROOT

