
##########                                Name:        OAP_190_1KVO
##########                    Molecular_Weight:             502.697
##########                DOCK_Rotatable_Bonds:                  17
##########                       Formal_Charge:             -1.0002
##########                     HBond_Acceptors:                   5
##########                        HBond_Donors:                   1
##########                         Heavy_Atoms:                  36
##########                            HA_RMSDs:               8.042
##########                            HA_RMSDh:               6.968
##########                            HA_RMSDm:               5.384
##########                          Grid_Score:           -0.409027
##########                     Grid_vdw_energy:          -47.197124
##########                      Grid_es_energy:           46.788097
##########           Internal_energy_repulsive:           29.746895

@<TRIPOS>MOLECULE
OAP_190_1KVO
 72 74 1 0 0
SMALL
USER_CHARGES


@<TRIPOS>ATOM
      1 C1        -39.5914   68.8960   31.1062 C.ar    1  <0>        -0.0617
      2 C2        -42.5207   73.6855   34.8701 C.ar    1  <0>        -0.0617
      3 C3        -39.2001   68.1287   30.0260 C.ar    1  <0>        -0.0615
      4 C4        -39.4423   68.3999   32.4077 C.ar    1  <0>        -0.0615
      5 C5        -42.8607   72.7613   33.9081 C.ar    1  <0>        -0.0615
      6 C6        -42.7860   73.4287   36.2008 C.ar    1  <0>        -0.0615
      7 C7        -38.6570   66.8633   30.2406 C.ar    1  <0>        -0.0586
      8 C8        -38.9033   67.1368   32.6085 C.ar    1  <0>        -0.0586
      9 C9        -43.4676   71.5785   34.2768 C.ar    1  <0>        -0.0583
     10 C10       -43.3957   72.2423   36.5675 C.ar    1  <0>        -0.0583
     11 C11       -42.2460   68.8767   35.8034 C.ar    1  <0>        -0.0572
     12 C12       -44.0150   67.7649   36.9812 C.ar    1  <0>        -0.0572
     13 C13       -41.4086   67.8200   36.0546 C.ar    1  <0>        -0.0481
     14 C14       -43.1606   66.6929   37.2337 C.ar    1  <0>        -0.0481
     15 C15       -38.8513   63.2402   33.2390 C.3     1  <0>        -0.0527
     16 C16       -39.8284   62.1087   33.4037 C.3     1  <0>        -0.0526
     17 C17       -39.0827   63.9710   31.9455 C.3     1  <0>        -0.0491
     18 C18       -39.4747   61.2830   34.6152 C.3     1  <0>        -0.0448
     19 C19       -37.9904   64.9927   31.7294 C.3     1  <0>        -0.0277
     20 C20       -43.3680   62.5179   38.6048 C.3     1  <0>        -0.0286
     21 C21       -40.7296   60.6738   35.2417 C.3     1  <0>         0.0240
     22 C22       -44.6374   63.3051   38.8667 C.3     1  <0>        -0.0115
     23 C23       -44.4654   70.0367   35.9997 C.3     1  <0>        -0.0024
     24 C24       -41.6621   64.3603   38.1980 C.3     1  <0>         0.0168
     25 C25       -38.5108   66.3588   31.5241 C.ar    1  <0>        -0.0474
     26 C26       -43.7475   71.3045   35.6109 C.ar    1  <0>        -0.0431
     27 C27       -43.5568   68.8724   36.2657 C.ar    1  <0>        -0.0430
     28 C28       -41.8631   66.7321   36.7638 C.ar    1  <0>         0.0080
     29 C29       -42.4235   63.1630   37.5829 C.3     1  <0>         0.0327
     30 C30       -41.7000   61.7147   35.7807 C.2     1  <0>         0.2133
     31 C31       -45.5965   63.2452   37.7156 C.2     1  <0>         0.0418
     32 N1        -41.5097   62.1633   37.0210 N.am    1  <0>        -0.3117
     33 O1        -46.4017   64.1863   37.5331 O.co2   1  <0>        -0.5498
     34 O2        -42.6383   62.1017   35.0867 O.2     1  <0>        -0.2758
     35 O3        -45.5241   62.2599   36.9644 O.co2   1  <0>        -0.5498
     36 S1        -40.7828   65.4711   37.0427 S.3     1  <0>        -0.1234
     37 H1        -40.0122   69.8778   30.9473 H       1  <0>         0.0618
     38 H2        -42.0461   74.6124   34.5838 H       1  <0>         0.0618
     39 H3        -39.3145   68.5073   29.0211 H       1  <0>         0.0618
     40 H4        -39.7461   68.9992   33.2533 H       1  <0>         0.0618
     41 H5        -42.6529   72.9617   32.8674 H       1  <0>         0.0618
     42 H6        -42.5176   74.1538   36.9548 H       1  <0>         0.0618
     43 H7        -38.3455   66.2673   29.3955 H       1  <0>         0.0620
     44 H8        -38.7879   66.7556   33.6124 H       1  <0>         0.0620
     45 H9        -43.7288   70.8551   33.5186 H       1  <0>         0.0620
     46 H10       -43.5994   72.0454   37.6097 H       1  <0>         0.0620
     47 H11       -41.8823   69.7229   35.2394 H       1  <0>         0.0621
     48 H12       -45.0334   67.7386   37.3399 H       1  <0>         0.0621
     49 H13       -40.3905   67.8418   35.6950 H       1  <0>         0.0629
     50 H14       -43.5111   65.8380   37.7927 H       1  <0>         0.0629
     51 H15       -38.9768   63.9447   34.0743 H       1  <0>         0.0265
     52 H16       -37.8296   62.8326   33.2408 H       1  <0>         0.0265
     53 H17       -40.8406   62.5206   33.5300 H       1  <0>         0.0265
     54 H18       -39.7959   61.4698   32.5089 H       1  <0>         0.0265
     55 H19       -39.0771   63.2506   31.1142 H       1  <0>         0.0268
     56 H20       -40.0563   64.4816   31.9850 H       1  <0>         0.0268
     57 H21       -38.7957   60.4726   34.3114 H       1  <0>         0.0270
     58 H22       -38.9801   61.9276   35.3568 H       1  <0>         0.0270
     59 H23       -37.3428   64.9995   32.6185 H       1  <0>         0.0313
     60 H24       -37.4181   64.7029   30.8358 H       1  <0>         0.0313
     61 H25       -42.8244   62.4271   39.5568 H       1  <0>         0.0287
     62 H26       -43.6573   61.5289   38.2200 H       1  <0>         0.0287
     63 H27       -41.2489   60.0870   34.4698 H       1  <0>         0.0358
     64 H28       -40.4185   60.0289   36.0768 H       1  <0>         0.0358
     65 H29       -45.1317   62.8845   39.7548 H       1  <0>         0.0325
     66 H30       -44.3660   64.3569   39.0402 H       1  <0>         0.0325
     67 H31       -45.0351   70.2384   36.9188 H       1  <0>         0.0361
     68 H32       -45.1366   69.7605   35.1732 H       1  <0>         0.0361
     69 H33       -42.4035   64.9730   38.7316 H       1  <0>         0.0398
     70 H34       -40.9072   63.9444   38.8815 H       1  <0>         0.0398
     71 H35       -43.0302   63.5615   36.7563 H       1  <0>         0.0506
     72 H36       -40.7458   61.8191   37.5671 H       1  <0>         0.1490
@<TRIPOS>BOND
     1     1     3   ar
     2     1     4   ar
     3     2     5   ar
     4     2     6   ar
     5     3     7   ar
     6     4     8   ar
     7     5     9   ar
     8     6    10   ar
     9     7    25   ar
    10     8    25   ar
    11     9    26   ar
    12    10    26   ar
    13    11    13   ar
    14    11    27   ar
    15    12    14   ar
    16    12    27   ar
    17    13    28   ar
    18    14    28   ar
    19    15    16    1
    20    15    17    1
    21    16    18    1
    22    17    19    1
    23    18    21    1
    24    19    25    1
    25    20    22    1
    26    20    29    1
    27    21    30    1
    28    22    31    1
    29    23    26    1
    30    23    27    1
    31    24    29    1
    32    24    36    1
    33    28    36    1
    34    29    32    1
    35    30    32   am
    36    30    34    2
    37    31    33    1
    38    31    35    2
    39     1    37    1
    40     2    38    1
    41     3    39    1
    42     4    40    1
    43     5    41    1
    44     6    42    1
    45     7    43    1
    46     8    44    1
    47     9    45    1
    48    10    46    1
    49    11    47    1
    50    12    48    1
    51    13    49    1
    52    14    50    1
    53    15    51    1
    54    15    52    1
    55    16    53    1
    56    16    54    1
    57    17    55    1
    58    17    56    1
    59    18    57    1
    60    18    58    1
    61    19    59    1
    62    19    60    1
    63    20    61    1
    64    20    62    1
    65    21    63    1
    66    21    64    1
    67    22    65    1
    68    22    66    1
    69    23    67    1
    70    23    68    1
    71    24    69    1
    72    24    70    1
    73    29    71    1
    74    32    72    1
@<TRIPOS>SUBSTRUCTURE
     1 <0>         1 TEMP              0 ****  ****    0 ROOT

