
##########                                Name:          YAM_1_3BZ3
##########                    Molecular_Weight:              505.48
##########                DOCK_Rotatable_Bonds:                   8
##########                       Formal_Charge:         0.000100255
##########                     HBond_Acceptors:                  14
##########                        HBond_Donors:                   2
##########                         Heavy_Atoms:                  35
##########                            HA_RMSDs:               0.948
##########                            HA_RMSDh:               0.948
##########                            HA_RMSDm:               0.836
##########                          Grid_Score:          -69.816475
##########                     Grid_vdw_energy:          -65.116875
##########                      Grid_es_energy:           -4.699601
##########           Internal_energy_repulsive:           22.644217

@<TRIPOS>MOLECULE
YAM_1_3BZ3
 53 56 1 0 0
SMALL
USER_CHARGES


@<TRIPOS>ATOM
      1 C1          7.0585    1.8191    8.5310 C.3     1  <0>         0.0247
      2 C2          6.7168    4.5128   10.7189 C.3     1  <0>         0.0738
      3 C3          5.6252    5.3517    5.2914 C.ar    1  <0>        -0.0432
      4 C4          6.8798    4.7917    5.0947 C.ar    1  <0>        -0.0523
      5 C5         10.8493    0.5239    4.3366 C.ar    1  <0>        -0.0384
      6 C6         10.0254   -0.1152    3.4247 C.ar    1  <0>        -0.0339
      7 C7          4.9929    5.1771    6.5072 C.ar    1  <0>         0.0298
      8 C8         12.7306    0.2020    2.8694 C.ar    1  <0>        -0.0311
      9 C9         13.5383    4.3370    6.7513 C.ar    1  <0>         0.0462
     10 C10        12.1840   -1.0763    0.6254 C.2     1  <0>         0.0139
     11 C11         8.8471    3.5121    5.9379 C.3     1  <0>         0.0390
     12 C12        12.2075    0.6887    4.0625 C.ar    1  <0>         0.0343
     13 C13         7.4789    4.1063    6.1367 C.ar    1  <0>         0.0109
     14 C14        10.5568   -0.6005    2.2263 C.ar    1  <0>         0.0752
     15 C15        11.9163   -0.4452    1.9727 C.ar    1  <0>         0.0074
     16 C16        12.2520    4.8019    6.9477 C.ar    1  <0>         0.1125
     17 C17        11.1997    4.0276    6.4154 C.ar    1  <0>         0.1358
     18 C18         6.7952    3.9762    7.3464 C.ar    1  <0>         0.1445
     19 C19        12.7471    2.4971    5.6267 C.ar    1  <0>         0.2212
     20 C20        10.8237   -1.5766    0.1879 C.2     1  <0>         0.2714
     21 C21        12.0824    6.0946    7.7198 C.3     1  <0>         0.4220
     22 N1          5.5770    4.5026    7.4876 N.ar    1  <0>        -0.2385
     23 N2         13.7510    3.2058    6.1037 N.ar    1  <0>        -0.2220
     24 N3         11.4939    2.9026    5.7614 N.ar    1  <0>        -0.1989
     25 N4          9.9455   -1.2370    1.1471 N.2     1  <0>        -0.2091
     26 N5          9.8669    4.3537    6.5741 N.pl3   1  <0>        -0.3243
     27 N6         13.0881    1.3581    4.9241 N.pl3   1  <0>        -0.2836
     28 N7          7.3386    3.2559    8.4126 N.pl3   1  <0>        -0.1932
     29 O1         10.5632   -2.1490   -0.8535 O.2     1  <0>        -0.2659
     30 O2          8.8760    2.9964   10.2380 O.2     1  <0>        -0.1552
     31 O3          8.6948    5.1704    9.0379 O.2     1  <0>        -0.1552
     32 F1         13.3413    6.5963    8.0459 F       1  <0>        -0.1657
     33 F2         11.4551    7.0760    6.9607 F       1  <0>        -0.1657
     34 F3         11.3574    5.8881    8.8895 F       1  <0>        -0.1657
     35 S1          8.1078    4.0336    9.6534 S.o2    1  <0>         0.0435
     36 H1          7.5635    1.4189    9.4225 H       1  <0>         0.0447
     37 H2          5.9735    1.6636    8.6235 H       1  <0>         0.0447
     38 H3          7.4286    1.2985    7.6354 H       1  <0>         0.0447
     39 H4          7.0975    5.0499   11.6002 H       1  <0>         0.0482
     40 H5          6.0337    5.1673   10.1576 H       1  <0>         0.0482
     41 H6          6.1767    3.6114   11.0442 H       1  <0>         0.0482
     42 H7          5.1492    5.9170    4.5039 H       1  <0>         0.0633
     43 H8          7.3807    4.8893    4.1428 H       1  <0>         0.0622
     44 H9         10.4387    0.8961    5.2635 H       1  <0>         0.0637
     45 H10         8.9741   -0.2384    3.6393 H       1  <0>         0.0639
     46 H11         4.0093    5.5957    6.6611 H       1  <0>         0.0830
     47 H12        13.7794    0.3334    2.6475 H       1  <0>         0.0643
     48 H13        14.3763    4.9031    7.1302 H       1  <0>         0.0837
     49 H14        13.1239   -1.1524    0.0990 H       1  <0>         0.0679
     50 H15         8.8743    2.5089    6.3884 H       1  <0>         0.0512
     51 H16         9.0574    3.4418    4.8605 H       1  <0>         0.0512
     52 H17         9.7535    5.2714    6.1931 H       1  <0>         0.1478
     53 H18        14.0118    0.9915    5.0357 H       1  <0>         0.1550
@<TRIPOS>BOND
     1     1    28    1
     2     2    35    1
     3     3     4   ar
     4     3     7   ar
     5     4    13   ar
     6     5     6   ar
     7     5    12   ar
     8     6    14   ar
     9     7    22   ar
    10     8    12   ar
    11     8    15   ar
    12     9    16   ar
    13     9    23   ar
    14    10    15    2
    15    10    20    1
    16    11    13    1
    17    11    26    1
    18    12    27    1
    19    13    18   ar
    20    14    15   ar
    21    14    25    2
    22    16    17   ar
    23    16    21    1
    24    17    24   ar
    25    17    26    1
    26    18    22   ar
    27    18    28    1
    28    19    23   ar
    29    19    24   ar
    30    19    27    1
    31    20    25    1
    32    20    29    2
    33    21    32    1
    34    21    33    1
    35    21    34    1
    36    28    35    1
    37    30    35    2
    38    31    35    2
    39     1    36    1
    40     1    37    1
    41     1    38    1
    42     2    39    1
    43     2    40    1
    44     2    41    1
    45     3    42    1
    46     4    43    1
    47     5    44    1
    48     6    45    1
    49     7    46    1
    50     8    47    1
    51     9    48    1
    52    10    49    1
    53    11    50    1
    54    11    51    1
    55    26    52    1
    56    27    53    1
@<TRIPOS>SUBSTRUCTURE
     1 <0>         1 TEMP              0 ****  ****    0 ROOT

