
##########                                Name:          YAM_1_3BZ3
##########                    Molecular_Weight:              505.48
##########                DOCK_Rotatable_Bonds:                   8
##########                       Formal_Charge:         0.000100255
##########                     HBond_Acceptors:                  14
##########                        HBond_Donors:                   2
##########                         Heavy_Atoms:                  35
##########                            HA_RMSDs:               0.475
##########                            HA_RMSDh:               0.475
##########                            HA_RMSDm:               0.475
##########                          Grid_Score:          -71.593040
##########                     Grid_vdw_energy:          -67.348373
##########                      Grid_es_energy:           -4.244665
##########           Internal_energy_repulsive:           32.804897

@<TRIPOS>MOLECULE
YAM_1_3BZ3
 53 56 1 0 0
SMALL
USER_CHARGES


@<TRIPOS>ATOM
      1 C1          6.8062    1.5876    8.2469 C.3     1  <0>         0.0247
      2 C2          6.3697    4.1511   10.5107 C.3     1  <0>         0.0738
      3 C3          5.9580    5.2604    4.9625 C.ar    1  <0>        -0.0432
      4 C4          7.2568    4.7710    4.9690 C.ar    1  <0>        -0.0523
      5 C5         11.4221    0.9102    4.5329 C.ar    1  <0>        -0.0384
      6 C6         10.7044    0.1480    3.6258 C.ar    1  <0>        -0.0339
      7 C7          5.1224    4.9667    6.0227 C.ar    1  <0>         0.0298
      8 C8         13.4646    0.3668    3.3804 C.ar    1  <0>        -0.0311
      9 C9         13.6215    4.6991    7.2918 C.ar    1  <0>         0.0462
     10 C10        13.1741   -1.2250    1.2947 C.2     1  <0>         0.0139
     11 C11         9.1027    3.5159    6.0808 C.3     1  <0>         0.0390
     12 C12        12.8074    1.0263    4.4135 C.ar    1  <0>         0.0343
     13 C13         7.6901    4.0343    6.0572 C.ar    1  <0>         0.0109
     14 C14        11.3705   -0.5109    2.5884 C.ar    1  <0>         0.0752
     15 C15        12.7543   -0.4013    2.4906 C.ar    1  <0>         0.0074
     16 C16        12.2943    5.0797    7.3460 C.ar    1  <0>         0.1125
     17 C17        11.3666    4.2802    6.6456 C.ar    1  <0>         0.1358
     18 C18         6.8027    3.7832    7.1046 C.ar    1  <0>         0.1445
     19 C19        13.0924    2.8864    5.9841 C.ar    1  <0>         0.2212
     20 C20        11.8681   -1.7775    0.7644 C.2     1  <0>         0.2714
     21 C21        11.9498    6.3140    8.1546 C.3     1  <0>         0.4220
     22 N1          5.5518    4.2449    7.0482 N.ar    1  <0>        -0.2385
     23 N2         13.9831    3.6209    6.6203 N.ar    1  <0>        -0.2220
     24 N3         11.8093    3.2132    5.9784 N.ar    1  <0>        -0.1989
     25 N4         10.8847   -1.2961    1.5440 N.2     1  <0>        -0.2091
     26 N5         10.0067    4.5221    6.6495 N.pl3   1  <0>        -0.3243
     27 N6         13.5884    1.8107    5.2740 N.pl3   1  <0>        -0.2836
     28 N7          7.1788    3.0075    8.2035 N.pl3   1  <0>        -0.1932
     29 O1         11.7270   -2.4956   -0.2075 O.2     1  <0>        -0.2659
     30 O2          8.5490    2.6328   10.1388 O.2     1  <0>        -0.1552
     31 O3          8.4923    4.8685    9.0444 O.2     1  <0>        -0.1552
     32 F1         12.8442    6.4234    9.2181 F       1  <0>        -0.1657
     33 F2         12.0850    7.4795    7.4087 F       1  <0>        -0.1657
     34 F3         10.6536    6.2392    8.6553 F       1  <0>        -0.1657
     35 S1          7.8438    3.7092    9.5457 S.o2    1  <0>         0.0435
     36 H1          7.1824    1.1376    9.1775 H       1  <0>         0.0447
     37 H2          5.7106    1.4950    8.2118 H       1  <0>         0.0447
     38 H3          7.2462    1.0666    7.3838 H       1  <0>         0.0447
     39 H4          6.6768    4.6365   11.4488 H       1  <0>         0.0482
     40 H5          5.7439    4.8430    9.9278 H       1  <0>         0.0482
     41 H6          5.7953    3.2413   10.7398 H       1  <0>         0.0482
     42 H7          5.6051    5.8634    4.1390 H       1  <0>         0.0633
     43 H8          7.9189    4.9622    4.1376 H       1  <0>         0.0622
     44 H9         10.9072    1.4167    5.3358 H       1  <0>         0.0637
     45 H10         9.6318    0.0629    3.7200 H       1  <0>         0.0639
     46 H11         4.1053    5.3300    6.0158 H       1  <0>         0.0830
     47 H12        14.5358    0.4589    3.2775 H       1  <0>         0.0643
     48 H13        14.3690    5.2879    7.8025 H       1  <0>         0.0837
     49 H14        14.1707   -1.3823    0.9093 H       1  <0>         0.0679
     50 H15         9.1430    2.6050    6.6963 H       1  <0>         0.0512
     51 H16         9.4200    3.2848    5.0532 H       1  <0>         0.0512
     52 H17         9.8672    5.3586    6.1196 H       1  <0>         0.1478
     53 H18        14.5556    1.5792    5.3791 H       1  <0>         0.1550
@<TRIPOS>BOND
     1     1    28    1
     2     2    35    1
     3     3     4   ar
     4     3     7   ar
     5     4    13   ar
     6     5     6   ar
     7     5    12   ar
     8     6    14   ar
     9     7    22   ar
    10     8    12   ar
    11     8    15   ar
    12     9    16   ar
    13     9    23   ar
    14    10    15    2
    15    10    20    1
    16    11    13    1
    17    11    26    1
    18    12    27    1
    19    13    18   ar
    20    14    15   ar
    21    14    25    2
    22    16    17   ar
    23    16    21    1
    24    17    24   ar
    25    17    26    1
    26    18    22   ar
    27    18    28    1
    28    19    23   ar
    29    19    24   ar
    30    19    27    1
    31    20    25    1
    32    20    29    2
    33    21    32    1
    34    21    33    1
    35    21    34    1
    36    28    35    1
    37    30    35    2
    38    31    35    2
    39     1    36    1
    40     1    37    1
    41     1    38    1
    42     2    39    1
    43     2    40    1
    44     2    41    1
    45     3    42    1
    46     4    43    1
    47     5    44    1
    48     6    45    1
    49     7    46    1
    50     8    47    1
    51     9    48    1
    52    10    49    1
    53    11    50    1
    54    11    51    1
    55    26    52    1
    56    27    53    1
@<TRIPOS>SUBSTRUCTURE
     1 <0>         1 TEMP              0 ****  ****    0 ROOT

