
##########                                Name:          YAM_1_3BZ3
##########                    Molecular_Weight:              505.48
##########                DOCK_Rotatable_Bonds:                   8
##########                       Formal_Charge:         0.000100255
##########                     HBond_Acceptors:                  14
##########                        HBond_Donors:                   2
##########                         Heavy_Atoms:                  35
##########                            HA_RMSDs:               0.795
##########                            HA_RMSDh:               0.795
##########                            HA_RMSDm:               0.732
##########                          Grid_Score:          -69.558228
##########                     Grid_vdw_energy:          -65.056313
##########                      Grid_es_energy:           -4.501918
##########           Internal_energy_repulsive:           19.833996

@<TRIPOS>MOLECULE
YAM_1_3BZ3
 53 56 1 0 0
SMALL
USER_CHARGES


@<TRIPOS>ATOM
      1 C1          7.1283    1.5035    8.3428 C.3     1  <0>         0.0247
      2 C2          6.5825    4.0655   10.6946 C.3     1  <0>         0.0738
      3 C3          5.6489    5.2362    5.3582 C.ar    1  <0>        -0.0432
      4 C4          6.9326    4.7463    5.1622 C.ar    1  <0>        -0.0523
      5 C5         11.0811    0.5363    4.4252 C.ar    1  <0>        -0.0384
      6 C6         10.2978   -0.1666    3.5245 C.ar    1  <0>        -0.0339
      7 C7          4.9846    4.9338    6.5311 C.ar    1  <0>         0.0298
      8 C8         12.9798    0.3023    2.9638 C.ar    1  <0>        -0.0311
      9 C9         13.5655    4.5526    6.7548 C.ar    1  <0>         0.0462
     10 C10        12.5128   -1.0451    0.7423 C.2     1  <0>         0.0139
     11 C11         8.9247    3.4812    5.9685 C.3     1  <0>         0.0390
     12 C12        12.4273    0.7773    4.1484 C.ar    1  <0>         0.0343
     13 C13         7.5259    4.0004    6.1652 C.ar    1  <0>         0.0109
     14 C14        10.8585   -0.6399    2.3347 C.ar    1  <0>         0.0752
     15 C15        12.2065   -0.4079    2.0784 C.ar    1  <0>         0.0074
     16 C16        12.2615    4.9918    6.8806 C.ar    1  <0>         0.1125
     17 C17        11.2520    4.1776    6.3256 C.ar    1  <0>         0.1358
     18 C18         6.8085    3.7408    7.3338 C.ar    1  <0>         0.1445
     19 C19        12.8675    2.6630    5.6512 C.ar    1  <0>         0.2212
     20 C20        11.1853   -1.6333    0.3135 C.2     1  <0>         0.2714
     21 C21        12.0282    6.3015    7.6061 C.3     1  <0>         0.4220
     22 N1          5.5644    4.2034    7.4730 N.ar    1  <0>        -0.2385
     23 N2         13.8326    3.4089    6.1508 N.ar    1  <0>        -0.2220
     24 N3         11.6006    3.0419    5.7186 N.ar    1  <0>        -0.1989
     25 N4         10.2875   -1.3303    1.2667 N.2     1  <0>        -0.2091
     26 N5          9.9063    4.4760    6.4158 N.pl3   1  <0>        -0.3243
     27 N6         13.2654    1.5129    4.9982 N.pl3   1  <0>        -0.2836
     28 N7          7.3468    2.9557    8.3559 N.pl3   1  <0>        -0.1932
     29 O1         10.9606   -2.2382   -0.7179 O.2     1  <0>        -0.2659
     30 O2          8.7752    2.5866   10.2498 O.2     1  <0>        -0.1552
     31 O3          8.6525    4.8306    9.1780 O.2     1  <0>        -0.1552
     32 F1         13.2581    6.8295    7.9952 F       1  <0>        -0.1657
     33 F2         11.4364    7.2538    6.7840 F       1  <0>        -0.1657
     34 F3         11.2351    6.1150    8.7342 F       1  <0>        -0.1657
     35 S1          8.0368    3.6564    9.6860 S.o2    1  <0>         0.0435
     36 H1          7.6199    1.0503    9.2162 H       1  <0>         0.0447
     37 H2          6.0489    1.2950    8.3805 H       1  <0>         0.0447
     38 H3          7.5523    1.0774    7.4215 H       1  <0>         0.0447
     39 H4          6.9072    4.5477   11.6285 H       1  <0>         0.0482
     40 H5          5.9300    4.7521   10.1353 H       1  <0>         0.0482
     41 H6          6.0294    3.1445   10.9308 H       1  <0>         0.0482
     42 H7          5.1753    5.8462    4.6032 H       1  <0>         0.0633
     43 H8          7.4603    4.9443    4.2409 H       1  <0>         0.0622
     44 H9         10.6480    0.8992    5.3456 H       1  <0>         0.0637
     45 H10         9.2555   -0.3487    3.7412 H       1  <0>         0.0639
     46 H11         3.9790    5.2976    6.6827 H       1  <0>         0.0830
     47 H12        14.0191    0.4922    2.7396 H       1  <0>         0.0643
     48 H13        14.3727    5.1492    7.1534 H       1  <0>         0.0837
     49 H14        13.4562   -1.0739    0.2173 H       1  <0>         0.0679
     50 H15         9.0532    2.5585    6.5535 H       1  <0>         0.0512
     51 H16         9.0849    3.2703    4.9009 H       1  <0>         0.0512
     52 H17         9.7594    5.2901    5.8539 H       1  <0>         0.1478
     53 H18        14.2006    1.1878    5.1388 H       1  <0>         0.1550
@<TRIPOS>BOND
     1     1    28    1
     2     2    35    1
     3     3     4   ar
     4     3     7   ar
     5     4    13   ar
     6     5     6   ar
     7     5    12   ar
     8     6    14   ar
     9     7    22   ar
    10     8    12   ar
    11     8    15   ar
    12     9    16   ar
    13     9    23   ar
    14    10    15    2
    15    10    20    1
    16    11    13    1
    17    11    26    1
    18    12    27    1
    19    13    18   ar
    20    14    15   ar
    21    14    25    2
    22    16    17   ar
    23    16    21    1
    24    17    24   ar
    25    17    26    1
    26    18    22   ar
    27    18    28    1
    28    19    23   ar
    29    19    24   ar
    30    19    27    1
    31    20    25    1
    32    20    29    2
    33    21    32    1
    34    21    33    1
    35    21    34    1
    36    28    35    1
    37    30    35    2
    38    31    35    2
    39     1    36    1
    40     1    37    1
    41     1    38    1
    42     2    39    1
    43     2    40    1
    44     2    41    1
    45     3    42    1
    46     4    43    1
    47     5    44    1
    48     6    45    1
    49     7    46    1
    50     8    47    1
    51     9    48    1
    52    10    49    1
    53    11    50    1
    54    11    51    1
    55    26    52    1
    56    27    53    1
@<TRIPOS>SUBSTRUCTURE
     1 <0>         1 TEMP              0 ****  ****    0 ROOT

