
##########                                Name:          YAM_1_3BZ3
##########                    Molecular_Weight:              505.48
##########                DOCK_Rotatable_Bonds:                   8
##########                       Formal_Charge:         0.000100255
##########                     HBond_Acceptors:                  14
##########                        HBond_Donors:                   2
##########                         Heavy_Atoms:                  35
##########                            HA_RMSDs:               0.360
##########                            HA_RMSDh:               0.360
##########                            HA_RMSDm:               0.360
##########                          Grid_Score:          -67.218620
##########                     Grid_vdw_energy:          -63.682266
##########                      Grid_es_energy:           -3.536353
##########           Internal_energy_repulsive:           25.488237

@<TRIPOS>MOLECULE
YAM_1_3BZ3
 53 56 1 0 0
SMALL
USER_CHARGES


@<TRIPOS>ATOM
      1 C1          7.3593    1.7083    8.0582 C.3     1  <0>         0.0247
      2 C2          6.2428    4.3205   10.2584 C.3     1  <0>         0.0738
      3 C3          5.8890    5.3508    4.9570 C.ar    1  <0>        -0.0432
      4 C4          7.2072    4.9232    4.8809 C.ar    1  <0>        -0.0523
      5 C5         11.5829    0.8974    4.7259 C.ar    1  <0>        -0.0384
      6 C6         10.9129    0.1141    3.8006 C.ar    1  <0>        -0.0339
      7 C7          5.1380    5.0234    6.0693 C.ar    1  <0>         0.0298
      8 C8         13.6376    0.5825    3.5116 C.ar    1  <0>        -0.0311
      9 C9         13.6613    5.0606    7.1215 C.ar    1  <0>         0.0462
     10 C10        13.4375   -0.9404    1.3647 C.2     1  <0>         0.0139
     11 C11         9.1781    3.7621    5.8741 C.3     1  <0>         0.0390
     12 C12        12.9500    1.1386    4.5850 C.ar    1  <0>         0.0343
     13 C13         7.7439    4.2133    5.9404 C.ar    1  <0>         0.0109
     14 C14        11.6092   -0.4406    2.7228 C.ar    1  <0>         0.0752
     15 C15        12.9758   -0.2068    2.6032 C.ar    1  <0>         0.0074
     16 C16        12.3229    5.3999    7.1727 C.ar    1  <0>         0.1125
     17 C17        11.4066    4.4913    6.6025 C.ar    1  <0>         0.1358
     18 C18         6.9384    3.9260    7.0433 C.ar    1  <0>         0.1445
     19 C19        13.1641    3.0873    6.0563 C.ar    1  <0>         0.2212
     20 C20        12.1721   -1.5819    0.8362 C.2     1  <0>         0.2714
     21 C21        11.9551    6.7099    7.8394 C.3     1  <0>         0.4220
     22 N1          5.6660    4.3279    7.0666 N.ar    1  <0>        -0.2385
     23 N2         14.0441    3.9225    6.5716 N.ar    1  <0>        -0.2220
     24 N3         11.8701    3.3675    6.0530 N.ar    1  <0>        -0.1989
     25 N4         11.1691   -1.2210    1.6548 N.2     1  <0>        -0.2091
     26 N5         10.0392    4.6858    6.6213 N.pl3   1  <0>        -0.3243
     27 N6         13.6800    1.9516    5.4635 N.pl3   1  <0>        -0.2836
     28 N7          7.4206    3.1744    8.1172 N.pl3   1  <0>        -0.1932
     29 O1         12.0712   -2.2685   -0.1631 O.2     1  <0>        -0.2659
     30 O2          8.4904    2.8573   10.2429 O.2     1  <0>        -0.1552
     31 O3          8.5447    5.0789    9.1198 O.2     1  <0>        -0.1552
     32 F1         13.0142    7.1202    8.6476 F       1  <0>        -0.1657
     33 F2         11.7536    7.7270    6.9132 F       1  <0>        -0.1657
     34 F3         10.8127    6.5707    8.6216 F       1  <0>        -0.1657
     35 S1          7.8568    3.9080    9.5342 S.o2    1  <0>         0.0435
     36 H1          7.7796    1.2857    8.9828 H       1  <0>         0.0447
     37 H2          6.3119    1.3892    7.9525 H       1  <0>         0.0447
     38 H3          7.9404    1.3516    7.1950 H       1  <0>         0.0447
     39 H4          6.3919    4.8240   11.2250 H       1  <0>         0.0482
     40 H5          5.6956    4.9891    9.5775 H       1  <0>         0.0482
     41 H6          5.6631    3.3982   10.4113 H       1  <0>         0.0482
     42 H7          5.4558    5.9323    4.1566 H       1  <0>         0.0633
     43 H8          7.8048    5.1412    4.0081 H       1  <0>         0.0622
     44 H9         11.0449    1.3233    5.5599 H       1  <0>         0.0637
     45 H10         9.8541   -0.0680    3.9116 H       1  <0>         0.0639
     46 H11         4.1065    5.3384    6.1272 H       1  <0>         0.0830
     47 H12        14.6942    0.7717    3.3922 H       1  <0>         0.0643
     48 H13        14.4003    5.7313    7.5343 H       1  <0>         0.0837
     49 H14        14.4348   -0.9941    0.9537 H       1  <0>         0.0679
     50 H15         9.2610    2.7565    6.3123 H       1  <0>         0.0512
     51 H16         9.5009    3.7377    4.8228 H       1  <0>         0.0512
     52 H17         9.8780    5.5951    6.2374 H       1  <0>         0.1478
     53 H18        14.6240    1.6956    5.6719 H       1  <0>         0.1550
@<TRIPOS>BOND
     1     1    28    1
     2     2    35    1
     3     3     4   ar
     4     3     7   ar
     5     4    13   ar
     6     5     6   ar
     7     5    12   ar
     8     6    14   ar
     9     7    22   ar
    10     8    12   ar
    11     8    15   ar
    12     9    16   ar
    13     9    23   ar
    14    10    15    2
    15    10    20    1
    16    11    13    1
    17    11    26    1
    18    12    27    1
    19    13    18   ar
    20    14    15   ar
    21    14    25    2
    22    16    17   ar
    23    16    21    1
    24    17    24   ar
    25    17    26    1
    26    18    22   ar
    27    18    28    1
    28    19    23   ar
    29    19    24   ar
    30    19    27    1
    31    20    25    1
    32    20    29    2
    33    21    32    1
    34    21    33    1
    35    21    34    1
    36    28    35    1
    37    30    35    2
    38    31    35    2
    39     1    36    1
    40     1    37    1
    41     1    38    1
    42     2    39    1
    43     2    40    1
    44     2    41    1
    45     3    42    1
    46     4    43    1
    47     5    44    1
    48     6    45    1
    49     7    46    1
    50     8    47    1
    51     9    48    1
    52    10    49    1
    53    11    50    1
    54    11    51    1
    55    26    52    1
    56    27    53    1
@<TRIPOS>SUBSTRUCTURE
     1 <0>         1 TEMP              0 ****  ****    0 ROOT

