
##########                                Name:          YAM_1_3BZ3
##########                    Molecular_Weight:              505.48
##########                DOCK_Rotatable_Bonds:                   8
##########                       Formal_Charge:         0.000100255
##########                     HBond_Acceptors:                  14
##########                        HBond_Donors:                   2
##########                         Heavy_Atoms:                  35
##########                            HA_RMSDs:               0.503
##########                            HA_RMSDh:               0.503
##########                            HA_RMSDm:               0.503
##########                          Grid_Score:          -71.163010
##########                     Grid_vdw_energy:          -67.999229
##########                      Grid_es_energy:           -3.163780
##########           Internal_energy_repulsive:           35.295822

@<TRIPOS>MOLECULE
YAM_1_3BZ3
 53 56 1 0 0
SMALL
USER_CHARGES


@<TRIPOS>ATOM
      1 C1          7.3571    1.5684    7.7781 C.3     1  <0>         0.0247
      2 C2          5.8034    3.8543   10.0180 C.3     1  <0>         0.0738
      3 C3          5.9199    5.2790    4.7384 C.ar    1  <0>        -0.0432
      4 C4          7.2433    4.8610    4.7248 C.ar    1  <0>        -0.0523
      5 C5         11.6743    1.0564    4.6120 C.ar    1  <0>        -0.0384
      6 C6         11.0168    0.1988    3.7453 C.ar    1  <0>        -0.0339
      7 C7          5.1106    4.9179    5.7982 C.ar    1  <0>         0.0298
      8 C8         13.7474    0.6360    3.4627 C.ar    1  <0>        -0.0311
      9 C9         13.5289    4.9535    7.4337 C.ar    1  <0>         0.0462
     10 C10        13.5772   -1.0626    1.4492 C.2     1  <0>         0.0139
     11 C11         9.1642    3.6853    5.7957 C.3     1  <0>         0.0390
     12 C12        13.0443    1.2822    4.4737 C.ar    1  <0>         0.0343
     13 C13         7.7254    4.1264    5.7936 C.ar    1  <0>         0.0109
     14 C14        11.7288   -0.4463    2.7299 C.ar    1  <0>         0.0752
     15 C15        13.0979   -0.2261    2.6135 C.ar    1  <0>         0.0074
     16 C16        12.1744    5.2223    7.4799 C.ar    1  <0>         0.1125
     17 C17        11.3259    4.3824    6.7284 C.ar    1  <0>         0.1358
     18 C18         6.8619    3.8054    6.8420 C.ar    1  <0>         0.1445
     19 C19        13.1696    3.1642    6.0391 C.ar    1  <0>         0.2212
     20 C20        12.3184   -1.7442    0.9561 C.2     1  <0>         0.2714
     21 C21        11.7179    6.3871    8.3347 C.3     1  <0>         0.4220
     22 N1          5.5874    4.1993    6.8048 N.ar    1  <0>        -0.2385
     23 N2         13.9876    3.9393    6.7229 N.ar    1  <0>        -0.2220
     24 N3         11.8643    3.3857    6.0238 N.ar    1  <0>        -0.1989
     25 N4         11.3035   -1.3134    1.7246 N.2     1  <0>        -0.2091
     26 N5          9.9508    4.5127    6.7176 N.pl3   1  <0>        -0.3243
     27 N6         13.7626    2.1652    5.2923 N.pl3   1  <0>        -0.2836
     28 N7          7.2891    3.0284    7.9212 N.pl3   1  <0>        -0.1932
     29 O1         12.2315   -2.5126    0.0168 O.2     1  <0>        -0.2659
     30 O2          8.2194    2.6933   10.1088 O.2     1  <0>        -0.1552
     31 O3          8.0674    4.9807    9.1372 O.2     1  <0>        -0.1552
     32 F1         12.7205    6.6961    9.2525 F       1  <0>        -0.1657
     33 F2         11.5107    7.5366    7.5805 F       1  <0>        -0.1657
     34 F3         10.5499    6.0755    9.0238 F       1  <0>        -0.1657
     35 S1          7.5102    3.7046    9.4146 S.o2    1  <0>         0.0435
     36 H1          7.7112    1.1233    8.7197 H       1  <0>         0.0447
     37 H2          6.3571    1.1765    7.5407 H       1  <0>         0.0447
     38 H3          8.0540    1.3118    6.9666 H       1  <0>         0.0447
     39 H4          5.8072    4.2997   11.0237 H       1  <0>         0.0482
     40 H5          5.2282    4.4965    9.3349 H       1  <0>         0.0482
     41 H6          5.3409    2.8571   10.0606 H       1  <0>         0.0482
     42 H7          5.5276    5.8789    3.9306 H       1  <0>         0.0633
     43 H8          7.8870    5.1054    3.8927 H       1  <0>         0.0622
     44 H9         11.1242    1.5523    5.3981 H       1  <0>         0.0637
     45 H10         9.9558    0.0288    3.8540 H       1  <0>         0.0639
     46 H11         4.0753    5.2254    5.8067 H       1  <0>         0.0830
     47 H12        14.8064    0.8125    3.3451 H       1  <0>         0.0643
     48 H13        14.2180    5.5776    7.9833 H       1  <0>         0.0837
     49 H14        14.5808   -1.1527    1.0606 H       1  <0>         0.0679
     50 H15         9.2195    2.6346    6.1165 H       1  <0>         0.0512
     51 H16         9.5744    3.7863    4.7800 H       1  <0>         0.0512
     52 H17         9.7592    5.4641    6.4765 H       1  <0>         0.1478
     53 H18        14.7567    2.0664    5.3377 H       1  <0>         0.1550
@<TRIPOS>BOND
     1     1    28    1
     2     2    35    1
     3     3     4   ar
     4     3     7   ar
     5     4    13   ar
     6     5     6   ar
     7     5    12   ar
     8     6    14   ar
     9     7    22   ar
    10     8    12   ar
    11     8    15   ar
    12     9    16   ar
    13     9    23   ar
    14    10    15    2
    15    10    20    1
    16    11    13    1
    17    11    26    1
    18    12    27    1
    19    13    18   ar
    20    14    15   ar
    21    14    25    2
    22    16    17   ar
    23    16    21    1
    24    17    24   ar
    25    17    26    1
    26    18    22   ar
    27    18    28    1
    28    19    23   ar
    29    19    24   ar
    30    19    27    1
    31    20    25    1
    32    20    29    2
    33    21    32    1
    34    21    33    1
    35    21    34    1
    36    28    35    1
    37    30    35    2
    38    31    35    2
    39     1    36    1
    40     1    37    1
    41     1    38    1
    42     2    39    1
    43     2    40    1
    44     2    41    1
    45     3    42    1
    46     4    43    1
    47     5    44    1
    48     6    45    1
    49     7    46    1
    50     8    47    1
    51     9    48    1
    52    10    49    1
    53    11    50    1
    54    11    51    1
    55    26    52    1
    56    27    53    1
@<TRIPOS>SUBSTRUCTURE
     1 <0>         1 TEMP              0 ****  ****    0 ROOT

