
##########                                Name:          YAM_1_3BZ3
##########                    Molecular_Weight:              505.48
##########                DOCK_Rotatable_Bonds:                   8
##########                       Formal_Charge:         0.000100255
##########                     HBond_Acceptors:                  14
##########                        HBond_Donors:                   2
##########                         Heavy_Atoms:                  35
##########                            HA_RMSDs:               0.295
##########                            HA_RMSDh:               0.295
##########                            HA_RMSDm:               0.295
##########                          Grid_Score:          -71.267067
##########                     Grid_vdw_energy:          -67.492668
##########                      Grid_es_energy:           -3.774400
##########           Internal_energy_repulsive:           32.756638

@<TRIPOS>MOLECULE
YAM_1_3BZ3
 53 56 1 0 0
SMALL
USER_CHARGES


@<TRIPOS>ATOM
      1 C1          7.2371    1.7042    8.3243 C.3     1  <0>         0.0247
      2 C2          6.6020    4.0745   10.7627 C.3     1  <0>         0.0738
      3 C3          5.9531    5.5028    5.3353 C.ar    1  <0>        -0.0432
      4 C4          7.2697    5.0742    5.2394 C.ar    1  <0>        -0.0523
      5 C5         11.6007    1.2979    4.6377 C.ar    1  <0>        -0.0384
      6 C6         10.9091    0.5200    3.7237 C.ar    1  <0>        -0.0339
      7 C7          5.1980    5.1194    6.4268 C.ar    1  <0>         0.0298
      8 C8         13.6839    0.6503    3.6197 C.ar    1  <0>        -0.0311
      9 C9         13.7104    5.0234    7.5205 C.ar    1  <0>         0.0462
     10 C10        13.4558   -1.0163    1.5852 C.2     1  <0>         0.0139
     11 C11         9.2333    3.8531    6.1734 C.3     1  <0>         0.0390
     12 C12        12.9934    1.3696    4.5891 C.ar    1  <0>         0.0343
     13 C13         7.8008    4.3062    6.2605 C.ar    1  <0>         0.0109
     14 C14        11.6088   -0.1992    2.7504 C.ar    1  <0>         0.0752
     15 C15        12.9985   -0.1330    2.7235 C.ar    1  <0>         0.0074
     16 C16        12.3852    5.4146    7.5171 C.ar    1  <0>         0.1125
     17 C17        11.4858    4.6337    6.7609 C.ar    1  <0>         0.1358
     18 C18         6.9914    3.9636    7.3446 C.ar    1  <0>         0.1445
     19 C19        13.2303    3.2352    6.1613 C.ar    1  <0>         0.2212
     20 C20        12.1634   -1.5526    1.0070 C.2     1  <0>         0.2714
     21 C21        12.0120    6.6395    8.3271 C.3     1  <0>         0.4220
     22 N1          5.7206    4.3692    7.3865 N.ar    1  <0>        -0.2385
     23 N2         14.0952    3.9523    6.8505 N.ar    1  <0>        -0.2220
     24 N3         11.9516    3.5730    6.0993 N.ar    1  <0>        -0.1989
     25 N4         11.1553   -1.0122    1.7128 N.2     1  <0>        -0.2091
     26 N5         10.1292    4.8872    6.7036 N.pl3   1  <0>        -0.3243
     27 N6         13.7513    2.1660    5.4592 N.pl3   1  <0>        -0.2836
     28 N7          7.4678    3.1535    8.3778 N.pl3   1  <0>        -0.1932
     29 O1         12.0522   -2.3054    0.0578 O.2     1  <0>        -0.2659
     30 O2          8.8946    2.7726   10.2705 O.2     1  <0>        -0.1552
     31 O3          8.6342    5.0610    9.3248 O.2     1  <0>        -0.1552
     32 F1         13.1676    7.1818    8.8873 F       1  <0>        -0.1657
     33 F2         11.4559    7.6378    7.5352 F       1  <0>        -0.1657
     34 F3         11.1214    6.3144    9.3457 F       1  <0>        -0.1657
     35 S1          8.0927    3.8214    9.7561 S.o2    1  <0>         0.0435
     36 H1          7.6777    1.2292    9.2133 H       1  <0>         0.0447
     37 H2          6.1554    1.5058    8.3009 H       1  <0>         0.0447
     38 H3          7.7054    1.2917    7.4184 H       1  <0>         0.0447
     39 H4          6.8821    4.5230   11.7273 H       1  <0>         0.0482
     40 H5          5.9116    4.7470   10.2325 H       1  <0>         0.0482
     41 H6          6.1093    3.1067   10.9379 H       1  <0>         0.0482
     42 H7          5.5243    6.1281    4.5663 H       1  <0>         0.0633
     43 H8          7.8704    5.3361    4.3809 H       1  <0>         0.0622
     44 H9         11.0597    1.8511    5.3912 H       1  <0>         0.0637
     45 H10         9.8310    0.4693    3.7630 H       1  <0>         0.0639
     46 H11         4.1677    5.4352    6.4991 H       1  <0>         0.0830
     47 H12        14.7613    0.7077    3.5714 H       1  <0>         0.0643
     48 H13        14.4372    5.5981    8.0753 H       1  <0>         0.0837
     49 H14        14.4661   -1.2174    1.2608 H       1  <0>         0.0679
     50 H15         9.3571    2.9317    6.7615 H       1  <0>         0.0512
     51 H16         9.4876    3.6597    5.1209 H       1  <0>         0.0512
     52 H17        10.0162    5.6876    6.1147 H       1  <0>         0.1478
     53 H18        14.7201    1.9484    5.5777 H       1  <0>         0.1550
@<TRIPOS>BOND
     1     1    28    1
     2     2    35    1
     3     3     4   ar
     4     3     7   ar
     5     4    13   ar
     6     5     6   ar
     7     5    12   ar
     8     6    14   ar
     9     7    22   ar
    10     8    12   ar
    11     8    15   ar
    12     9    16   ar
    13     9    23   ar
    14    10    15    2
    15    10    20    1
    16    11    13    1
    17    11    26    1
    18    12    27    1
    19    13    18   ar
    20    14    15   ar
    21    14    25    2
    22    16    17   ar
    23    16    21    1
    24    17    24   ar
    25    17    26    1
    26    18    22   ar
    27    18    28    1
    28    19    23   ar
    29    19    24   ar
    30    19    27    1
    31    20    25    1
    32    20    29    2
    33    21    32    1
    34    21    33    1
    35    21    34    1
    36    28    35    1
    37    30    35    2
    38    31    35    2
    39     1    36    1
    40     1    37    1
    41     1    38    1
    42     2    39    1
    43     2    40    1
    44     2    41    1
    45     3    42    1
    46     4    43    1
    47     5    44    1
    48     6    45    1
    49     7    46    1
    50     8    47    1
    51     9    48    1
    52    10    49    1
    53    11    50    1
    54    11    51    1
    55    26    52    1
    56    27    53    1
@<TRIPOS>SUBSTRUCTURE
     1 <0>         1 TEMP              0 ****  ****    0 ROOT

