
##########                                Name:          YAM_1_3BZ3
##########                    Molecular_Weight:              505.48
##########                DOCK_Rotatable_Bonds:                   8
##########                       Formal_Charge:         0.000100255
##########                     HBond_Acceptors:                  14
##########                        HBond_Donors:                   2
##########                         Heavy_Atoms:                  35
##########                            HA_RMSDs:               0.449
##########                            HA_RMSDh:               0.449
##########                            HA_RMSDm:               0.449
##########                          Grid_Score:          -70.940605
##########                     Grid_vdw_energy:          -67.761932
##########                      Grid_es_energy:           -3.178675
##########           Internal_energy_repulsive:           34.645046

@<TRIPOS>MOLECULE
YAM_1_3BZ3
 53 56 1 0 0
SMALL
USER_CHARGES


@<TRIPOS>ATOM
      1 C1          7.4033    1.4928    7.8023 C.3     1  <0>         0.0247
      2 C2          6.3239    3.9260   10.3011 C.3     1  <0>         0.0738
      3 C3          5.8194    5.4957    5.2514 C.ar    1  <0>        -0.0432
      4 C4          7.1531    5.1367    5.1141 C.ar    1  <0>        -0.0523
      5 C5         11.5784    1.2091    4.7423 C.ar    1  <0>        -0.0384
      6 C6         10.8787    0.3532    3.9077 C.ar    1  <0>        -0.0339
      7 C7          5.0875    4.9777    6.3024 C.ar    1  <0>         0.0298
      8 C8         13.6130    0.7101    3.5562 C.ar    1  <0>        -0.0311
      9 C9         13.6017    5.0988    7.4567 C.ar    1  <0>         0.0462
     10 C10        13.3518   -1.0219    1.5813 C.2     1  <0>         0.0139
     11 C11         9.1731    3.9208    5.9265 C.3     1  <0>         0.0390
     12 C12        12.9505    1.3947    4.5694 C.ar    1  <0>         0.0343
     13 C13         7.7226    4.2998    6.0574 C.ar    1  <0>         0.0109
     14 C14        11.5500   -0.3307    2.8899 C.ar    1  <0>         0.0752
     15 C15        12.9215   -0.1502    2.7389 C.ar    1  <0>         0.0074
     16 C16        12.2628    5.4386    7.4847 C.ar    1  <0>         0.1125
     17 C17        11.3790    4.6341    6.7351 C.ar    1  <0>         0.1358
     18 C18         6.9346    3.8208    7.1049 C.ar    1  <0>         0.1445
     19 C19        13.1633    3.3121    6.0815 C.ar    1  <0>         0.2212
     20 C20        12.0644   -1.6783    1.1297 C.2     1  <0>         0.2714
     21 C21        11.8594    6.6371    8.3195 C.3     1  <0>         0.4220
     22 N1          5.6475    4.1640    7.1862 N.ar    1  <0>        -0.2385
     23 N2         14.0138    4.0526    6.7640 N.ar    1  <0>        -0.2220
     24 N3         11.8716    3.6012    6.0493 N.ar    1  <0>        -0.1989
     25 N4         11.0789   -1.2051    1.9117 N.2     1  <0>        -0.2091
     26 N5         10.0128    4.8360    6.7078 N.pl3   1  <0>        -0.3243
     27 N6         13.7106    2.2735    5.3541 N.pl3   1  <0>        -0.2836
     28 N7          7.4514    2.9384    8.0563 N.pl3   1  <0>        -0.1932
     29 O1         11.9356   -2.4621    0.2082 O.2     1  <0>        -0.2659
     30 O2          8.4641    2.3174   10.1424 O.2     1  <0>        -0.1552
     31 O3          8.6902    4.6382    9.2696 O.2     1  <0>        -0.1552
     32 F1         12.9667    7.0805    9.0407 F       1  <0>        -0.1657
     33 F2         11.4523    7.7075    7.5310 F       1  <0>        -0.1657
     34 F3         10.8392    6.3090    9.2072 F       1  <0>        -0.1657
     35 S1          7.9161    3.4811    9.5482 S.o2    1  <0>         0.0435
     36 H1          7.8511    0.9557    8.6513 H       1  <0>         0.0447
     37 H2          6.3567    1.1769    7.6796 H       1  <0>         0.0447
     38 H3          7.9658    1.2628    6.8853 H       1  <0>         0.0447
     39 H4          6.4931    4.3097   11.3180 H       1  <0>         0.0482
     40 H5          5.8351    4.7016    9.6933 H       1  <0>         0.0482
     41 H6          5.6791    3.0359   10.3478 H       1  <0>         0.0482
     42 H7          5.3596    6.1714    4.5455 H       1  <0>         0.0633
     43 H8          7.7373    5.5049    4.2838 H       1  <0>         0.0622
     44 H9         11.0597    1.7350    5.5302 H       1  <0>         0.0637
     45 H10         9.8163    0.2144    4.0431 H       1  <0>         0.0639
     46 H11         4.0447    5.2395    6.4053 H       1  <0>         0.0830
     47 H12        14.6734    0.8553    3.4118 H       1  <0>         0.0643
     48 H13        14.3170    5.6933    8.0055 H       1  <0>         0.0837
     49 H14        14.3436   -1.1469    1.1726 H       1  <0>         0.0679
     50 H15         9.3135    2.8951    6.2985 H       1  <0>         0.0512
     51 H16         9.4668    3.9759    4.8678 H       1  <0>         0.0512
     52 H17         9.8698    5.7480    6.3233 H       1  <0>         0.1478
     53 H18        14.7012    2.1412    5.3889 H       1  <0>         0.1550
@<TRIPOS>BOND
     1     1    28    1
     2     2    35    1
     3     3     4   ar
     4     3     7   ar
     5     4    13   ar
     6     5     6   ar
     7     5    12   ar
     8     6    14   ar
     9     7    22   ar
    10     8    12   ar
    11     8    15   ar
    12     9    16   ar
    13     9    23   ar
    14    10    15    2
    15    10    20    1
    16    11    13    1
    17    11    26    1
    18    12    27    1
    19    13    18   ar
    20    14    15   ar
    21    14    25    2
    22    16    17   ar
    23    16    21    1
    24    17    24   ar
    25    17    26    1
    26    18    22   ar
    27    18    28    1
    28    19    23   ar
    29    19    24   ar
    30    19    27    1
    31    20    25    1
    32    20    29    2
    33    21    32    1
    34    21    33    1
    35    21    34    1
    36    28    35    1
    37    30    35    2
    38    31    35    2
    39     1    36    1
    40     1    37    1
    41     1    38    1
    42     2    39    1
    43     2    40    1
    44     2    41    1
    45     3    42    1
    46     4    43    1
    47     5    44    1
    48     6    45    1
    49     7    46    1
    50     8    47    1
    51     9    48    1
    52    10    49    1
    53    11    50    1
    54    11    51    1
    55    26    52    1
    56    27    53    1
@<TRIPOS>SUBSTRUCTURE
     1 <0>         1 TEMP              0 ****  ****    0 ROOT

