
##########                                Name:          YAM_1_3BZ3
##########                    Molecular_Weight:              505.48
##########                DOCK_Rotatable_Bonds:                   8
##########                       Formal_Charge:         0.000100255
##########                     HBond_Acceptors:                  14
##########                        HBond_Donors:                   2
##########                         Heavy_Atoms:                  35
##########                            HA_RMSDs:               0.811
##########                            HA_RMSDh:               0.811
##########                            HA_RMSDm:               0.778
##########                          Grid_Score:          -70.912170
##########                     Grid_vdw_energy:          -66.660698
##########                      Grid_es_energy:           -4.251470
##########           Internal_energy_repulsive:           22.065956

@<TRIPOS>MOLECULE
YAM_1_3BZ3
 53 56 1 0 0
SMALL
USER_CHARGES


@<TRIPOS>ATOM
      1 C1          6.7851    1.4330    7.7229 C.3     1  <0>         0.0247
      2 C2          5.9725    3.9050   10.0797 C.3     1  <0>         0.0738
      3 C3          5.8384    5.3070    4.7020 C.ar    1  <0>        -0.0432
      4 C4          7.1244    4.7857    4.6711 C.ar    1  <0>        -0.0523
      5 C5         11.1917    0.5414    4.3794 C.ar    1  <0>        -0.0384
      6 C6         10.4446   -0.1974    3.4767 C.ar    1  <0>        -0.0339
      7 C7          5.0067    4.9853    5.7571 C.ar    1  <0>         0.0298
      8 C8         13.1625    0.1917    3.0418 C.ar    1  <0>        -0.0311
      9 C9         13.5023    4.4536    6.9505 C.ar    1  <0>         0.0462
     10 C10        12.7903   -1.2708    0.8758 C.2     1  <0>         0.0139
     11 C11         8.9494    3.4350    5.7026 C.3     1  <0>         0.0390
     12 C12        12.5557    0.7426    4.1653 C.ar    1  <0>         0.0343
     13 C13         7.5502    3.9889    5.7191 C.ar    1  <0>         0.0109
     14 C14        11.0599   -0.7471    2.3482 C.ar    1  <0>         0.0752
     15 C15        12.4244   -0.5537    2.1553 C.ar    1  <0>         0.0074
     16 C16        12.1889    4.8797    7.0003 C.ar    1  <0>         0.1125
     17 C17        11.2309    4.0916    6.3284 C.ar    1  <0>         0.1358
     18 C18         6.6676    3.7117    6.7640 C.ar    1  <0>         0.1445
     19 C19        12.9054    2.6222    5.6993 C.ar    1  <0>         0.2212
     20 C20        11.4765   -1.8589    0.4068 C.2     1  <0>         0.2714
     21 C21        11.8906    6.1479    7.7741 C.3     1  <0>         0.4220
     22 N1          5.4283    4.2064    6.7433 N.ar    1  <0>        -0.2385
     23 N2         13.8238    3.3448    6.3091 N.ar    1  <0>        -0.2220
     24 N3         11.6339    2.9914    5.6905 N.ar    1  <0>        -0.1989
     25 N4         10.5341   -1.4866    1.2899 N.2     1  <0>        -0.2091
     26 N5          9.8798    4.3789    6.3321 N.pl3   1  <0>        -0.3243
     27 N6         13.3610    1.5103    5.0186 N.pl3   1  <0>        -0.2836
     28 N7          7.0353    2.8768    7.8216 N.pl3   1  <0>        -0.1932
     29 O1         11.2962   -2.5171   -0.6004 O.2     1  <0>        -0.2659
     30 O2          8.1876    2.4069    9.8746 O.2     1  <0>        -0.1552
     31 O3          8.2389    4.6939    8.8917 O.2     1  <0>        -0.1552
     32 F1         13.0788    6.6423    8.3095 F       1  <0>        -0.1657
     33 F2         11.3839    7.1505    6.9549 F       1  <0>        -0.1657
     34 F3         10.9917    5.9042    8.8080 F       1  <0>        -0.1657
     35 S1          7.5457    3.5113    9.2614 S.o2    1  <0>         0.0435
     36 H1          7.1359    0.9361    8.6394 H       1  <0>         0.0447
     37 H2          5.7065    1.2556    7.5996 H       1  <0>         0.0447
     38 H3          7.3254    1.0259    6.8555 H       1  <0>         0.0447
     39 H4          6.1726    4.3435   11.0685 H       1  <0>         0.0482
     40 H5          5.4106    4.6249    9.4665 H       1  <0>         0.0482
     41 H6          5.3814    2.9851   10.1995 H       1  <0>         0.0482
     42 H7          5.4924    5.9560    3.9112 H       1  <0>         0.0633
     43 H8          7.7826    4.9987    3.8417 H       1  <0>         0.0622
     44 H9         10.7163    0.9634    5.2525 H       1  <0>         0.0637
     45 H10         9.3885   -0.3485    3.6445 H       1  <0>         0.0639
     46 H11         3.9991    5.3737    5.7787 H       1  <0>         0.0830
     47 H12        14.2162    0.3503    2.8659 H       1  <0>         0.0643
     48 H13        14.2721    5.0317    7.4400 H       1  <0>         0.0837
     49 H14        13.7603   -1.3459    0.4069 H       1  <0>         0.0679
     50 H15         8.9684    2.4850    6.2569 H       1  <0>         0.0512
     51 H16         9.2579    3.2640    4.6607 H       1  <0>         0.0512
     52 H17         9.7743    5.2462    5.8457 H       1  <0>         0.1478
     53 H18        14.3156    1.2384    5.1406 H       1  <0>         0.1550
@<TRIPOS>BOND
     1     1    28    1
     2     2    35    1
     3     3     4   ar
     4     3     7   ar
     5     4    13   ar
     6     5     6   ar
     7     5    12   ar
     8     6    14   ar
     9     7    22   ar
    10     8    12   ar
    11     8    15   ar
    12     9    16   ar
    13     9    23   ar
    14    10    15    2
    15    10    20    1
    16    11    13    1
    17    11    26    1
    18    12    27    1
    19    13    18   ar
    20    14    15   ar
    21    14    25    2
    22    16    17   ar
    23    16    21    1
    24    17    24   ar
    25    17    26    1
    26    18    22   ar
    27    18    28    1
    28    19    23   ar
    29    19    24   ar
    30    19    27    1
    31    20    25    1
    32    20    29    2
    33    21    32    1
    34    21    33    1
    35    21    34    1
    36    28    35    1
    37    30    35    2
    38    31    35    2
    39     1    36    1
    40     1    37    1
    41     1    38    1
    42     2    39    1
    43     2    40    1
    44     2    41    1
    45     3    42    1
    46     4    43    1
    47     5    44    1
    48     6    45    1
    49     7    46    1
    50     8    47    1
    51     9    48    1
    52    10    49    1
    53    11    50    1
    54    11    51    1
    55    26    52    1
    56    27    53    1
@<TRIPOS>SUBSTRUCTURE
     1 <0>         1 TEMP              0 ****  ****    0 ROOT

