
##########                                Name:          YAM_1_3BZ3
##########                    Molecular_Weight:              505.48
##########                DOCK_Rotatable_Bonds:                   8
##########                       Formal_Charge:         0.000100255
##########                     HBond_Acceptors:                  14
##########                        HBond_Donors:                   2
##########                         Heavy_Atoms:                  35
##########                            HA_RMSDs:               0.964
##########                            HA_RMSDh:               0.964
##########                            HA_RMSDm:               0.864
##########                          Grid_Score:          -67.771851
##########                     Grid_vdw_energy:          -63.650257
##########                      Grid_es_energy:           -4.121591
##########           Internal_energy_repulsive:           24.266706

@<TRIPOS>MOLECULE
YAM_1_3BZ3
 53 56 1 0 0
SMALL
USER_CHARGES


@<TRIPOS>ATOM
      1 C1          7.1004    1.6352    7.9922 C.3     1  <0>         0.0247
      2 C2          6.2879    4.4358   10.1578 C.3     1  <0>         0.0738
      3 C3          5.7412    5.3497    4.9240 C.ar    1  <0>        -0.0432
      4 C4          7.0010    4.7884    4.7694 C.ar    1  <0>        -0.0523
      5 C5         10.9546    0.4535    4.1755 C.ar    1  <0>        -0.0384
      6 C6         10.1624   -0.2161    3.2574 C.ar    1  <0>        -0.0339
      7 C7          5.0421    5.1236    6.0939 C.ar    1  <0>         0.0298
      8 C8         12.9033   -0.0123    2.8409 C.ar    1  <0>        -0.0311
      9 C9         13.5470    4.1912    6.7564 C.ar    1  <0>         0.0462
     10 C10        12.4412   -1.4096    0.6494 C.2     1  <0>         0.0139
     11 C11         8.9111    3.4529    5.6567 C.3     1  <0>         0.0390
     12 C12        12.3306    0.5617    3.9708 C.ar    1  <0>         0.0343
     13 C13         7.5378    4.0493    5.8088 C.ar    1  <0>         0.0109
     14 C14        10.7437   -0.7894    2.1227 C.ar    1  <0>         0.0752
     15 C15        12.1195   -0.6894    1.9390 C.ar    1  <0>         0.0074
     16 C16        12.2711    4.7199    6.7970 C.ar    1  <0>         0.1125
     17 C17        11.2571    4.0059    6.1246 C.ar    1  <0>         0.1358
     18 C18         6.7880    3.8684    6.9719 C.ar    1  <0>         0.1445
     19 C19        12.8134    2.4053    5.5123 C.ar    1  <0>         0.2212
     20 C20        11.0919   -1.8961    0.1649 C.2     1  <0>         0.2714
     21 C21        12.0700    6.0122    7.5621 C.3     1  <0>         0.4220
     22 N1          5.5673    4.3985    7.0714 N.ar    1  <0>        -0.2385
     23 N2         13.7831    3.0568    6.1228 N.ar    1  <0>        -0.2220
     24 N3         11.5750    2.8735    5.4949 N.ar    1  <0>        -0.1989
     25 N4         10.1731   -1.4728    1.0500 N.2     1  <0>        -0.2091
     26 N5          9.9329    4.3988    6.1197 N.pl3   1  <0>        -0.3243
     27 N6         13.1831    1.2569    4.8401 N.pl3   1  <0>        -0.2836
     28 N7          7.2675    3.0937    8.0306 N.pl3   1  <0>        -0.1932
     29 O1         10.8714   -2.5236   -0.8538 O.2     1  <0>        -0.2659
     30 O2          8.3372    2.7057   10.1445 O.2     1  <0>        -0.1552
     31 O3          8.6398    4.8715    8.9539 O.2     1  <0>        -0.1552
     32 F1         13.3162    6.5383    7.8988 F       1  <0>        -0.1657
     33 F2         11.4326    6.9791    6.7927 F       1  <0>        -0.1657
     34 F3         11.3372    5.7971    8.7253 F       1  <0>        -0.1657
     35 S1          7.8222    3.8067    9.4163 S.o2    1  <0>         0.0435
     36 H1          7.5342    1.1919    8.9006 H       1  <0>         0.0447
     37 H2          6.0292    1.3903    7.9403 H       1  <0>         0.0447
     38 H3          7.6125    1.2308    7.1066 H       1  <0>         0.0447
     39 H4          6.5194    4.9436   11.1057 H       1  <0>         0.0482
     40 H5          5.8122    5.1478    9.4673 H       1  <0>         0.0482
     41 H6          5.6025    3.5969   10.3493 H       1  <0>         0.0482
     42 H7          5.3127    5.9558    4.1395 H       1  <0>         0.0633
     43 H8          7.5540    4.9262    3.8520 H       1  <0>         0.0622
     44 H9         10.5053    0.8937    5.0534 H       1  <0>         0.0637
     45 H10         9.0974   -0.2953    3.4181 H       1  <0>         0.0639
     46 H11         4.0542    5.5433    6.2137 H       1  <0>         0.0830
     47 H12        13.9665    0.0747    2.6723 H       1  <0>         0.0643
     48 H13        14.3577    4.7098    7.2466 H       1  <0>         0.0837
     49 H14        13.4061   -1.5451    0.1835 H       1  <0>         0.0679
     50 H15         8.9734    2.5321    6.2554 H       1  <0>         0.0512
     51 H16         9.0883    3.2199    4.5964 H       1  <0>         0.0512
     52 H17         9.8764    5.1935    5.5153 H       1  <0>         0.1478
     53 H18        14.1076    0.9025    4.9808 H       1  <0>         0.1550
@<TRIPOS>BOND
     1     1    28    1
     2     2    35    1
     3     3     4   ar
     4     3     7   ar
     5     4    13   ar
     6     5     6   ar
     7     5    12   ar
     8     6    14   ar
     9     7    22   ar
    10     8    12   ar
    11     8    15   ar
    12     9    16   ar
    13     9    23   ar
    14    10    15    2
    15    10    20    1
    16    11    13    1
    17    11    26    1
    18    12    27    1
    19    13    18   ar
    20    14    15   ar
    21    14    25    2
    22    16    17   ar
    23    16    21    1
    24    17    24   ar
    25    17    26    1
    26    18    22   ar
    27    18    28    1
    28    19    23   ar
    29    19    24   ar
    30    19    27    1
    31    20    25    1
    32    20    29    2
    33    21    32    1
    34    21    33    1
    35    21    34    1
    36    28    35    1
    37    30    35    2
    38    31    35    2
    39     1    36    1
    40     1    37    1
    41     1    38    1
    42     2    39    1
    43     2    40    1
    44     2    41    1
    45     3    42    1
    46     4    43    1
    47     5    44    1
    48     6    45    1
    49     7    46    1
    50     8    47    1
    51     9    48    1
    52    10    49    1
    53    11    50    1
    54    11    51    1
    55    26    52    1
    56    27    53    1
@<TRIPOS>SUBSTRUCTURE
     1 <0>         1 TEMP              0 ****  ****    0 ROOT

