
##########                                Name:        T4B_293_2NNQ
##########                    Molecular_Weight:             473.551
##########                DOCK_Rotatable_Bonds:                   8
##########                       Formal_Charge:             -0.9997
##########                     HBond_Acceptors:                   5
##########                        HBond_Donors:                   0
##########                         Heavy_Atoms:                  36
##########                            HA_RMSDs:               0.232
##########                            HA_RMSDh:               0.232
##########                            HA_RMSDm:               0.232
##########                          Grid_Score:            8.350582
##########                     Grid_vdw_energy:          -47.028522
##########                      Grid_es_energy:           55.379105
##########           Internal_energy_repulsive:           15.741013

@<TRIPOS>MOLECULE
T4B_293_2NNQ
 61 65 1 0 0
SMALL
USER_CHARGES


@<TRIPOS>ATOM
      1 C1          3.1514    6.8607   14.5791 C.3     1  <0>        -0.0600
      2 C2          1.4989    2.9891   19.1154 C.ar    1  <0>        -0.0617
      3 C3          5.5357    7.2420   22.9223 C.ar    1  <0>        -0.0617
      4 C4          2.8931    3.2637   19.1712 C.ar    1  <0>        -0.0612
      5 C5          0.5823    4.0032   18.7258 C.ar    1  <0>        -0.0612
      6 C6          4.1933    6.8234   22.6951 C.ar    1  <0>        -0.0611
      7 C7          6.2826    7.8582   21.8818 C.ar    1  <0>        -0.0611
      8 C8          3.4886   12.1217   14.2299 C.ar    1  <0>        -0.0611
      9 C9          2.2338   11.5482   14.5841 C.ar    1  <0>        -0.0599
     10 C10         7.9135   10.5786   17.8374 C.ar    1  <0>        -0.0587
     11 C11         3.3797    4.5555   18.8347 C.ar    1  <0>        -0.0539
     12 C12         1.0582    5.2960   18.3930 C.ar    1  <0>        -0.0539
     13 C13         3.5916    7.0197   21.4205 C.ar    1  <0>        -0.0525
     14 C14         5.6848    8.0565   20.6030 C.ar    1  <0>        -0.0525
     15 C15         4.6916   11.6452   14.8164 C.ar    1  <0>        -0.0522
     16 C16         2.1762   10.4901   15.5282 C.ar    1  <0>        -0.0379
     17 C17         6.7437   11.0365   17.1527 C.ar    1  <0>        -0.0538
     18 C18         8.2754    9.2007   17.7985 C.ar    1  <0>        -0.0316
     19 C19         6.3010    8.7339   16.3804 C.ar    1  <0>        -0.0239
     20 C20         2.1109    7.0879   15.6820 C.3     1  <0>        -0.0146
     21 C21         6.8524    5.8860   17.0662 C.3     1  <0>         0.0934
     22 C22         2.4671    5.5865   18.4435 C.ar    1  <0>        -0.0143
     23 C23         4.3380    7.6395   20.3649 C.ar    1  <0>         0.0025
     24 C24         5.9290   10.1149   16.4242 C.ar    1  <0>        -0.0136
     25 C25         7.4749    8.2705   17.0704 C.ar    1  <0>         0.0772
     26 C26         4.6543   10.5823   15.7707 C.ar    1  <0>         0.0054
     27 C27         3.3799    9.9961   16.1264 C.ar    1  <0>         0.0645
     28 C28         2.7687    7.6617   16.9459 C.2     1  <0>         0.0441
     29 C29         2.9695    6.9734   18.1149 C.2     1  <0>         0.0287
     30 C30         3.7420    7.8969   19.0213 C.2     1  <0>         0.0987
     31 C31         6.7408    5.2208   15.6976 C.2     1  <0>         0.0678
     32 N1          3.9156    9.0147   18.3771 N.2     1  <0>        -0.1742
     33 N2          3.3319    8.9245   17.0750 N.pl3   1  <0>        -0.1954
     34 O1          5.9737    4.1617   15.5392 O.co2   1  <0>        -0.5474
     35 O2          7.3517    5.6778   14.7337 O.co2   1  <0>        -0.5474
     36 O3          7.8508    6.9357   17.0267 O.3     1  <0>        -0.3389
     37 H1          2.6567    6.4503   13.6864 H       1  <0>         0.0233
     38 H2          3.6311    7.8175   14.3250 H       1  <0>         0.0233
     39 H3          3.9134    6.1513   14.9345 H       1  <0>         0.0233
     40 H4          1.1346    2.0049   19.3703 H       1  <0>         0.0618
     41 H5          5.9887    7.0903   23.8910 H       1  <0>         0.0618
     42 H6          3.5835    2.4888   19.4699 H       1  <0>         0.0618
     43 H7         -0.4754    3.7888   18.6834 H       1  <0>         0.0618
     44 H8          3.6316    6.3566   23.4908 H       1  <0>         0.0618
     45 H9          7.2997    8.1751   22.0594 H       1  <0>         0.0618
     46 H10         3.5258   12.9255   13.5093 H       1  <0>         0.0618
     47 H11         1.3249   11.9190   14.1337 H       1  <0>         0.0618
     48 H12         8.5247   11.2799   18.3861 H       1  <0>         0.0619
     49 H13         4.4395    4.7597   18.8741 H       1  <0>         0.0624
     50 H14         0.3605    6.0667   18.1003 H       1  <0>         0.0624
     51 H15         2.5738    6.7022   21.2486 H       1  <0>         0.0624
     52 H16         6.2513    8.5234   19.8110 H       1  <0>         0.0624
     53 H17         5.6373   12.0877   14.5402 H       1  <0>         0.0624
     54 H18         1.2238   10.0571   15.7957 H       1  <0>         0.0637
     55 H19         6.4752   12.0820   17.1862 H       1  <0>         0.0624
     56 H20         9.1571    8.8600   18.3210 H       1  <0>         0.0643
     57 H21         5.6953    8.0336   15.8245 H       1  <0>         0.0649
     58 H22         1.3532    7.7979   15.3189 H       1  <0>         0.0324
     59 H23         1.6362    6.1271   15.9300 H       1  <0>         0.0324
     60 H24         5.8794    6.3197   17.3401 H       1  <0>         0.0627
     61 H25         7.1452    5.1336   17.8133 H       1  <0>         0.0627
@<TRIPOS>BOND
     1     1    20    1
     2     2     4   ar
     3     2     5   ar
     4     3     6   ar
     5     3     7   ar
     6     4    11   ar
     7     5    12   ar
     8     6    13   ar
     9     7    14   ar
    10     8     9   ar
    11     8    15   ar
    12     9    16   ar
    13    10    17   ar
    14    10    18   ar
    15    11    22   ar
    16    12    22   ar
    17    13    23   ar
    18    14    23   ar
    19    15    26   ar
    20    16    27   ar
    21    17    24   ar
    22    18    25   ar
    23    19    24   ar
    24    19    25   ar
    25    20    28    1
    26    21    31    1
    27    21    36    1
    28    22    29    1
    29    23    30    1
    30    24    26    1
    31    25    36    1
    32    26    27   ar
    33    27    33    1
    34    28    29    2
    35    28    33    1
    36    29    30    1
    37    30    32    2
    38    31    34    1
    39    31    35    2
    40    32    33    1
    41     1    37    1
    42     1    38    1
    43     1    39    1
    44     2    40    1
    45     3    41    1
    46     4    42    1
    47     5    43    1
    48     6    44    1
    49     7    45    1
    50     8    46    1
    51     9    47    1
    52    10    48    1
    53    11    49    1
    54    12    50    1
    55    13    51    1
    56    14    52    1
    57    15    53    1
    58    16    54    1
    59    17    55    1
    60    18    56    1
    61    19    57    1
    62    20    58    1
    63    20    59    1
    64    21    60    1
    65    21    61    1
@<TRIPOS>SUBSTRUCTURE
     1 <0>         1 TEMP              0 ****  ****    0 ROOT

