Z1834339853
 OpenBabel05312415402D

 23 25  0  0  0  0  0  0  0  0999 V2000
   10.0208  -14.6806    0.0000 C   0  0  0  0  0  0  0  0  0  0  0  0
   10.0208  -13.1806    0.0000 C   0  0  3  0  0  0  0  0  0  0  0  0
    8.7217  -12.4306    0.0000 C   0  0  0  0  0  0  0  0  0  0  0  0
    7.4227  -13.1806    0.0000 O   0  0  0  0  0  0  0  0  0  0  0  0
    6.1237  -12.4306    0.0000 C   0  0  0  0  0  0  0  0  0  0  0  0
    4.8246  -13.1806    0.0000 C   0  0  0  0  0  0  0  0  0  0  0  0
    3.5255  -12.4306    0.0000 C   0  0  0  0  0  0  0  0  0  0  0  0
    3.5255  -10.9306    0.0000 C   0  0  0  0  0  0  0  0  0  0  0  0
    4.8246  -10.1808    0.0000 C   0  0  0  0  0  0  0  0  0  0  0  0
    6.1237  -10.9306    0.0000 C   0  0  0  0  0  0  0  0  0  0  0  0
   11.3198  -12.4306    0.0000 C   0  0  0  0  0  0  0  0  0  0  0  0
   11.3198  -10.9306    0.0000 O   0  0  0  0  0  0  0  0  0  0  0  0
   12.6189  -13.1806    0.0000 N   0  0  0  0  0  0  0  0  0  0  0  0
   13.9179  -12.4306    0.0000 C   0  0  0  0  0  0  0  0  0  0  0  0
   14.0746  -10.9388    0.0000 N   0  0  0  0  0  0  0  0  0  0  0  0
   15.5419  -10.6272    0.0000 N   0  0  0  0  0  0  0  0  0  0  0  0
   16.2919  -11.9259    0.0000 C   0  0  0  0  0  0  0  0  0  0  0  0
   17.7591  -12.2379    0.0000 C   0  0  0  0  0  0  0  0  0  0  0  0
   18.2226  -13.6645    0.0000 C   0  0  0  0  0  0  0  0  0  0  0  0
   19.6899  -13.9763    0.0000 F   0  0  0  0  0  0  0  0  0  0  0  0
   17.2190  -14.7792    0.0000 C   0  0  0  0  0  0  0  0  0  0  0  0
   15.7517  -14.4674    0.0000 C   0  0  0  0  0  0  0  0  0  0  0  0
   15.2882  -13.0408    0.0000 C   0  0  0  0  0  0  0  0  0  0  0  0
  1  2  1  0  0  0  0
  2  3  1  0  0  0  0
  2 11  1  0  0  0  0
  3  4  1  0  0  0  0
  4  5  1  0  0  0  0
  5  6  2  0  0  0  0
  5 10  1  0  0  0  0
  6  7  1  0  0  0  0
  7  8  2  0  0  0  0
  8  9  1  0  0  0  0
  9 10  2  0  0  0  0
 11 12  2  0  0  0  0
 11 13  1  0  0  0  0
 13 14  1  0  0  0  0
 14 15  2  0  0  0  0
 14 23  1  0  0  0  0
 15 16  1  0  0  0  0
 16 17  1  0  0  0  0
 17 18  2  0  0  0  0
 17 23  1  0  0  0  0
 18 19  1  0  0  0  0
 19 20  1  0  0  0  0
 19 21  2  0  0  0  0
 21 22  1  0  0  0  0
 22 23  2  0  0  0  0
M  END
$$$$
