Z2075279358
 OpenBabel05312415382D

 25 28  0  0  0  0  0  0  0  0999 V2000
   10.4496  -12.9529    0.0000 C   0  0  0  0  0  0  0  0  0  0  0  0
    9.4460  -11.8382    0.0000 C   0  0  3  0  0  0  0  0  0  0  0  0
    7.9787  -12.1500    0.0000 C   0  0  0  0  0  0  0  0  0  0  0  0
    7.5152  -13.5768    0.0000 N   0  0  0  0  0  0  0  0  0  0  0  0
    8.3969  -14.7902    0.0000 N   0  0  0  0  0  0  0  0  0  0  0  0
    7.5152  -16.0037    0.0000 C   0  0  0  0  0  0  0  0  0  0  0  0
    6.0887  -15.5403    0.0000 C   0  0  0  0  0  0  0  0  0  0  0  0
    4.7895  -16.2903    0.0000 C   0  0  0  0  0  0  0  0  0  0  0  0
    3.4906  -15.5403    0.0000 C   0  0  0  0  0  0  0  0  0  0  0  0
    3.4906  -14.0402    0.0000 C   0  0  0  0  0  0  0  0  0  0  0  0
    4.7895  -13.2902    0.0000 C   0  0  0  0  0  0  0  0  0  0  0  0
    6.0887  -14.0402    0.0000 C   0  0  0  0  0  0  0  0  0  0  0  0
    9.9095  -10.4116    0.0000 C   0  0  0  0  0  0  0  0  0  0  0  0
    8.9058   -9.2969    0.0000 O   0  0  0  0  0  0  0  0  0  0  0  0
   11.3766  -10.0996    0.0000 N   0  0  0  0  0  0  0  0  0  0  0  0
   11.8402   -8.6730    0.0000 C   0  0  0  0  0  0  0  0  0  0  0  0
   10.9584   -7.4596    0.0000 N   0  0  0  0  0  0  0  0  0  0  0  0
   11.8402   -6.2459    0.0000 N   0  0  0  0  0  0  0  0  0  0  0  0
   13.2668   -6.7096    0.0000 C   0  0  0  0  0  0  0  0  0  0  0  0
   14.5659   -5.9597    0.0000 C   0  0  0  0  0  0  0  0  0  0  0  0
   15.8648   -6.7096    0.0000 C   0  0  0  0  0  0  0  0  0  0  0  0
   17.1639   -5.9597    0.0000 F   0  0  0  0  0  0  0  0  0  0  0  0
   15.8648   -8.2096    0.0000 C   0  0  0  0  0  0  0  0  0  0  0  0
   14.5659   -8.9596    0.0000 C   0  0  0  0  0  0  0  0  0  0  0  0
   13.2668   -8.2096    0.0000 C   0  0  0  0  0  0  0  0  0  0  0  0
  1  2  1  0  0  0  0
  2  3  1  0  0  0  0
  2 13  1  0  0  0  0
  3  4  1  0  0  0  0
  4  5  1  0  0  0  0
  4 12  1  0  0  0  0
  5  6  2  0  0  0  0
  6  7  1  0  0  0  0
  7  8  2  0  0  0  0
  7 12  1  0  0  0  0
  8  9  1  0  0  0  0
  9 10  2  0  0  0  0
 10 11  1  0  0  0  0
 11 12  2  0  0  0  0
 13 14  2  0  0  0  0
 13 15  1  0  0  0  0
 15 16  1  0  0  0  0
 16 17  2  0  0  0  0
 16 25  1  0  0  0  0
 17 18  1  0  0  0  0
 18 19  1  0  0  0  0
 19 20  2  0  0  0  0
 19 25  1  0  0  0  0
 20 21  1  0  0  0  0
 21 22  1  0  0  0  0
 21 23  2  0  0  0  0
 23 24  1  0  0  0  0
 24 25  2  0  0  0  0
M  END
$$$$
