
##########                                Name:        LLX_400_3MAX
##########                    Molecular_Weight:             288.349
##########                DOCK_Rotatable_Bonds:                   4
##########                       Formal_Charge:         0.000500143
##########                     HBond_Acceptors:                   3
##########                        HBond_Donors:                   3
##########                         Heavy_Atoms:                  22
##########                            HA_RMSDs:               0.480
##########                            HA_RMSDh:               0.480
##########                            HA_RMSDm:               0.480
##########                          Grid_Score:          -41.474056
##########                     Grid_vdw_energy:          -40.991150
##########                      Grid_es_energy:           -0.482907
##########           Internal_energy_repulsive:           12.909448

@<TRIPOS>MOLECULE
LLX_400_3MAX
 38 40 1 0 0
SMALL
USER_CHARGES


@<TRIPOS>ATOM
      1 C1         63.6329   28.1690    6.2937 C.ar    1  <0>        -0.0617
      2 C2         71.3883   32.2938   -1.7386 C.ar    1  <0>        -0.0617
      3 C3         64.9476   27.9615    5.8706 C.ar    1  <0>        -0.0612
      4 C4         62.6458   28.4723    5.3613 C.ar    1  <0>        -0.0612
      5 C5         71.1950   31.0515   -1.1576 C.ar    1  <0>        -0.0610
      6 C6         70.2929   33.1026   -2.0192 C.ar    1  <0>        -0.0610
      7 C7         65.2939   28.0423    4.5229 C.ar    1  <0>        -0.0540
      8 C8         62.9815   28.5591    4.0128 C.ar    1  <0>        -0.0540
      9 C9         69.9143   30.6159   -0.8649 C.ar    1  <0>        -0.0496
     10 C10        69.0026   32.6783   -1.7236 C.ar    1  <0>        -0.0496
     11 C11        63.8106   27.9983    1.1138 C.ar    1  <0>        -0.0522
     12 C12        64.1344   28.1475   -0.2266 C.ar    1  <0>        -0.0387
     13 C13        65.8530   29.1302    1.7501 C.ar    1  <0>        -0.0310
     14 C14        64.3085   28.3389    3.5701 C.ar    1  <0>        -0.0178
     15 C15        68.8075   31.4135   -1.1472 C.ar    1  <0>         0.0370
     16 C16        64.6633   28.4715    2.1238 C.ar    1  <0>        -0.0160
     17 C17        65.3277   28.7743   -0.5986 C.ar    1  <0>         0.0461
     18 C18        66.1735   29.2745    0.4049 C.ar    1  <0>         0.0551
     19 C19        67.4564   30.9072   -0.8051 C.2     1  <0>         0.2483
     20 N1         65.6495   28.9325   -1.9640 N.pl3   1  <0>        -0.3565
     21 N2         67.3959   29.8637    0.0377 N.am    1  <0>        -0.2799
     22 O1         66.4207   31.3805   -1.2418 O.2     1  <0>        -0.2699
     23 H1         63.3831   28.0943    7.3418 H       1  <0>         0.0618
     24 H2         72.3866   32.6330   -1.9730 H       1  <0>         0.0618
     25 H3         65.7099   27.7341    6.6010 H       1  <0>         0.0618
     26 H4         61.6277   28.6389    5.6808 H       1  <0>         0.0618
     27 H5         72.0438   30.4225   -0.9330 H       1  <0>         0.0618
     28 H6         70.4462   34.0712   -2.4717 H       1  <0>         0.0618
     29 H7         66.3156   27.8776    4.2141 H       1  <0>         0.0624
     30 H8         62.2151   28.7990    3.2906 H       1  <0>         0.0624
     31 H9         69.7713   29.6459   -0.4121 H       1  <0>         0.0625
     32 H10        68.1575   33.3164   -1.9357 H       1  <0>         0.0625
     33 H11        62.8865   27.5096    1.3854 H       1  <0>         0.0624
     34 H12        63.4618   27.7780   -0.9866 H       1  <0>         0.0637
     35 H13        66.5146   29.5223    2.5083 H       1  <0>         0.0643
     36 H14        66.5310   29.3972   -2.0475 H       1  <0>         0.1424
     37 H15        65.7037   28.0341   -2.3997 H       1  <0>         0.1424
     38 H16        68.2452   29.4949    0.4154 H       1  <0>         0.1552
@<TRIPOS>BOND
     1     1     3   ar
     2     1     4   ar
     3     2     5   ar
     4     2     6   ar
     5     3     7   ar
     6     4     8   ar
     7     5     9   ar
     8     6    10   ar
     9     7    14   ar
    10     8    14   ar
    11     9    15   ar
    12    10    15   ar
    13    11    12   ar
    14    11    16   ar
    15    12    17   ar
    16    13    16   ar
    17    13    18   ar
    18    14    16    1
    19    15    19    1
    20    17    18   ar
    21    17    20    1
    22    18    21    1
    23    19    21   am
    24    19    22    2
    25     1    23    1
    26     2    24    1
    27     3    25    1
    28     4    26    1
    29     5    27    1
    30     6    28    1
    31     7    29    1
    32     8    30    1
    33     9    31    1
    34    10    32    1
    35    11    33    1
    36    12    34    1
    37    13    35    1
    38    20    36    1
    39    20    37    1
    40    21    38    1
@<TRIPOS>SUBSTRUCTURE
     1 <0>         1 TEMP              0 ****  ****    0 ROOT

