
##########                                Name:        LLX_400_3MAX
##########                    Molecular_Weight:             288.349
##########                DOCK_Rotatable_Bonds:                   4
##########                       Formal_Charge:         0.000500143
##########                     HBond_Acceptors:                   3
##########                        HBond_Donors:                   3
##########                         Heavy_Atoms:                  22
##########                            HA_RMSDs:               0.471
##########                            HA_RMSDh:               0.471
##########                            HA_RMSDm:               0.471
##########                          Grid_Score:          -42.765041
##########                     Grid_vdw_energy:          -42.223648
##########                      Grid_es_energy:           -0.541392
##########           Internal_energy_repulsive:           20.047808

@<TRIPOS>MOLECULE
LLX_400_3MAX
 38 40 1 0 0
SMALL
USER_CHARGES


@<TRIPOS>ATOM
      1 C1         63.5632   28.1621    6.2022 C.ar    1  <0>        -0.0617
      2 C2         71.4974   32.4035   -1.6247 C.ar    1  <0>        -0.0617
      3 C3         64.8985   28.0097    5.8222 C.ar    1  <0>        -0.0612
      4 C4         62.5948   28.4220    5.2377 C.ar    1  <0>        -0.0612
      5 C5         71.3103   31.1698   -1.0237 C.ar    1  <0>        -0.0610
      6 C6         70.3951   33.1731   -1.9790 C.ar    1  <0>        -0.0610
      7 C7         65.2844   28.1032    4.4862 C.ar    1  <0>        -0.0540
      8 C8         62.9699   28.5210    3.9004 C.ar    1  <0>        -0.0540
      9 C9         70.0294   30.7036   -0.7843 C.ar    1  <0>        -0.0496
     10 C10        69.1041   32.7179   -1.7375 C.ar    1  <0>        -0.0496
     11 C11        63.9003   28.0180    1.0299 C.ar    1  <0>        -0.0522
     12 C12        64.2613   28.1790   -0.2997 C.ar    1  <0>        -0.0387
     13 C13        65.9023   29.1831    1.7314 C.ar    1  <0>        -0.0310
     14 C14        64.3186   28.3564    3.5013 C.ar    1  <0>        -0.0178
     15 C15        68.9160   31.4615   -1.1406 C.ar    1  <0>         0.0370
     16 C16        64.7139   28.5018    2.0668 C.ar    1  <0>        -0.0160
     17 C17        65.4538   28.8285   -0.6333 C.ar    1  <0>         0.0461
     18 C18        66.2602   29.3391    0.3970 C.ar    1  <0>         0.0551
     19 C19        67.5643   30.9236   -0.8538 C.2     1  <0>         0.2483
     20 N1         65.8132   28.9985   -1.9878 N.pl3   1  <0>        -0.3565
     21 N2         67.4823   29.9515    0.0689 N.am    1  <0>        -0.2799
     22 O1         66.5462   31.3112   -1.4022 O.2     1  <0>        -0.2699
     23 H1         63.2831   28.0785    7.2419 H       1  <0>         0.0618
     24 H2         72.4962   32.7665   -1.8174 H       1  <0>         0.0618
     25 H3         65.6457   27.8159    6.5774 H       1  <0>         0.0618
     26 H4         61.5609   28.5459    5.5238 H       1  <0>         0.0618
     27 H5         72.1641   30.5715   -0.7419 H       1  <0>         0.0618
     28 H6         70.5434   34.1350   -2.4469 H       1  <0>         0.0618
     29 H7         66.3216   27.9813    4.2108 H       1  <0>         0.0624
     30 H8         62.2178   28.7271    3.1533 H       1  <0>         0.0624
     31 H9         69.8912   29.7404   -0.3155 H       1  <0>         0.0625
     32 H10        68.2530   33.3257   -2.0069 H       1  <0>         0.0625
     33 H11        62.9774   27.5119    1.2717 H       1  <0>         0.0624
     34 H12        63.6183   27.8010   -1.0808 H       1  <0>         0.0637
     35 H13        66.5339   29.5835    2.5106 H       1  <0>         0.0643
     36 H14        66.6884   29.4791   -2.0431 H       1  <0>         0.1424
     37 H15        65.8965   28.1032   -2.4253 H       1  <0>         0.1424
     38 H16        68.3149   29.6545    0.5364 H       1  <0>         0.1552
@<TRIPOS>BOND
     1     1     3   ar
     2     1     4   ar
     3     2     5   ar
     4     2     6   ar
     5     3     7   ar
     6     4     8   ar
     7     5     9   ar
     8     6    10   ar
     9     7    14   ar
    10     8    14   ar
    11     9    15   ar
    12    10    15   ar
    13    11    12   ar
    14    11    16   ar
    15    12    17   ar
    16    13    16   ar
    17    13    18   ar
    18    14    16    1
    19    15    19    1
    20    17    18   ar
    21    17    20    1
    22    18    21    1
    23    19    21   am
    24    19    22    2
    25     1    23    1
    26     2    24    1
    27     3    25    1
    28     4    26    1
    29     5    27    1
    30     6    28    1
    31     7    29    1
    32     8    30    1
    33     9    31    1
    34    10    32    1
    35    11    33    1
    36    12    34    1
    37    13    35    1
    38    20    36    1
    39    20    37    1
    40    21    38    1
@<TRIPOS>SUBSTRUCTURE
     1 <0>         1 TEMP              0 ****  ****    0 ROOT

