
##########                                Name:        LLX_400_3MAX
##########                    Molecular_Weight:             288.349
##########                DOCK_Rotatable_Bonds:                   4
##########                       Formal_Charge:         0.000500143
##########                     HBond_Acceptors:                   3
##########                        HBond_Donors:                   3
##########                         Heavy_Atoms:                  22
##########                            HA_RMSDs:               0.745
##########                            HA_RMSDh:               0.745
##########                            HA_RMSDm:               0.745
##########                          Grid_Score:          -41.716377
##########                     Grid_vdw_energy:          -40.915993
##########                      Grid_es_energy:           -0.800384
##########           Internal_energy_repulsive:           20.166246

@<TRIPOS>MOLECULE
LLX_400_3MAX
 38 40 1 0 0
SMALL
USER_CHARGES


@<TRIPOS>ATOM
      1 C1         63.6251   28.1514    6.0864 C.ar    1  <0>        -0.0617
      2 C2         71.2080   32.4440   -2.0549 C.ar    1  <0>        -0.0617
      3 C3         64.9382   27.9852    5.6407 C.ar    1  <0>        -0.0612
      4 C4         62.6159   28.4394    5.1730 C.ar    1  <0>        -0.0612
      5 C5         71.0417   31.2008   -1.4676 C.ar    1  <0>        -0.0610
      6 C6         70.0952   33.2268   -2.3408 C.ar    1  <0>        -0.0610
      7 C7         65.2613   28.0926    4.2891 C.ar    1  <0>        -0.0540
      8 C8         62.9281   28.5524    3.8208 C.ar    1  <0>        -0.0540
      9 C9         69.7707   30.7383   -1.1739 C.ar    1  <0>        -0.0496
     10 C10        68.8144   32.7755   -2.0444 C.ar    1  <0>        -0.0496
     11 C11        63.7182   28.0676    0.9024 C.ar    1  <0>        -0.0522
     12 C12        64.0175   28.2427   -0.4407 C.ar    1  <0>        -0.0387
     13 C13        65.7575   29.2139    1.5230 C.ar    1  <0>        -0.0310
     14 C14        64.2536   28.3742    3.3552 C.ar    1  <0>        -0.0178
     15 C15        68.6468   31.5096   -1.4615 C.ar    1  <0>         0.0370
     16 C16        64.5823   28.5347    1.9057 C.ar    1  <0>        -0.0160
     17 C17        65.1968   28.8900   -0.8221 C.ar    1  <0>         0.0461
     18 C18        66.0534   29.3840    0.1752 C.ar    1  <0>         0.0551
     19 C19        67.3068   30.9751   -1.1182 C.2     1  <0>         0.2483
     20 N1         65.4934   29.0745   -2.1899 N.pl3   1  <0>        -0.3565
     21 N2         67.2623   29.9941   -0.2026 N.am    1  <0>        -0.2799
     22 O1         66.2667   31.3732   -1.6153 O.2     1  <0>        -0.2699
     23 H1         63.3937   28.0567    7.1370 H       1  <0>         0.0618
     24 H2         72.1987   32.8041   -2.2900 H       1  <0>         0.0618
     25 H3         65.7176   27.7695    6.3565 H       1  <0>         0.0618
     26 H4         61.5987   28.5741    5.5100 H       1  <0>         0.0618
     27 H5         71.9040   30.5920   -1.2389 H       1  <0>         0.0618
     28 H6         70.2274   34.1962   -2.7982 H       1  <0>         0.0618
     29 H7         66.2822   27.9597    3.9627 H       1  <0>         0.0624
     30 H8         62.1445   28.7804    3.1135 H       1  <0>         0.0624
     31 H9         69.6488   29.7677   -0.7162 H       1  <0>         0.0625
     32 H10        67.9555   33.3935   -2.2607 H       1  <0>         0.0625
     33 H11        62.8048   27.5634    1.1812 H       1  <0>         0.0624
     34 H12        63.3366   27.8774   -1.1952 H       1  <0>         0.0637
     35 H13        66.4271   29.6017    2.2764 H       1  <0>         0.0643
     36 H14        66.3678   29.5511   -2.2805 H       1  <0>         0.1424
     37 H15        65.5510   28.1840   -2.6413 H       1  <0>         0.1424
     38 H16        68.1140   29.6884    0.2231 H       1  <0>         0.1552
@<TRIPOS>BOND
     1     1     3   ar
     2     1     4   ar
     3     2     5   ar
     4     2     6   ar
     5     3     7   ar
     6     4     8   ar
     7     5     9   ar
     8     6    10   ar
     9     7    14   ar
    10     8    14   ar
    11     9    15   ar
    12    10    15   ar
    13    11    12   ar
    14    11    16   ar
    15    12    17   ar
    16    13    16   ar
    17    13    18   ar
    18    14    16    1
    19    15    19    1
    20    17    18   ar
    21    17    20    1
    22    18    21    1
    23    19    21   am
    24    19    22    2
    25     1    23    1
    26     2    24    1
    27     3    25    1
    28     4    26    1
    29     5    27    1
    30     6    28    1
    31     7    29    1
    32     8    30    1
    33     9    31    1
    34    10    32    1
    35    11    33    1
    36    12    34    1
    37    13    35    1
    38    20    36    1
    39    20    37    1
    40    21    38    1
@<TRIPOS>SUBSTRUCTURE
     1 <0>         1 TEMP              0 ****  ****    0 ROOT

