
##########                                Name:        LLX_400_3MAX
##########                    Molecular_Weight:             288.349
##########                DOCK_Rotatable_Bonds:                   4
##########                       Formal_Charge:         0.000500143
##########                     HBond_Acceptors:                   3
##########                        HBond_Donors:                   3
##########                         Heavy_Atoms:                  22
##########                            HA_RMSDs:               0.410
##########                            HA_RMSDh:               0.410
##########                            HA_RMSDm:               0.410
##########                          Grid_Score:          -41.057991
##########                     Grid_vdw_energy:          -40.181728
##########                      Grid_es_energy:           -0.876262
##########           Internal_energy_repulsive:           15.257304

@<TRIPOS>MOLECULE
LLX_400_3MAX
 38 40 1 0 0
SMALL
USER_CHARGES


@<TRIPOS>ATOM
      1 C1         63.5170   28.2511    6.2453 C.ar    1  <0>        -0.0617
      2 C2         71.6018   32.1520   -1.5871 C.ar    1  <0>        -0.0617
      3 C3         64.8328   28.0089    5.8447 C.ar    1  <0>        -0.0612
      4 C4         62.5587   28.5992    5.2986 C.ar    1  <0>        -0.0612
      5 C5         71.3427   30.9049   -1.0432 C.ar    1  <0>        -0.0610
      6 C6         70.5487   33.0154   -1.8671 C.ar    1  <0>        -0.0610
      7 C7         65.2084   28.0993    4.5055 C.ar    1  <0>        -0.0540
      8 C8         62.9238   28.6959    3.9585 C.ar    1  <0>        -0.0540
      9 C9         70.0385   30.5189   -0.7869 C.ar    1  <0>        -0.0496
     10 C10        69.2354   32.6410   -1.6080 C.ar    1  <0>        -0.0496
     11 C11        63.7862   28.1678    1.0674 C.ar    1  <0>        -0.0522
     12 C12        64.1417   28.3272   -0.2638 C.ar    1  <0>        -0.0387
     13 C13        65.8638   29.1967    1.7622 C.ar    1  <0>        -0.0310
     14 C14        64.2520   28.4410    3.5384 C.ar    1  <0>        -0.0178
     15 C15        68.9735   31.3716   -1.0693 C.ar    1  <0>         0.0370
     16 C16        64.6396   28.5844    2.1016 C.ar    1  <0>        -0.0160
     17 C17        65.3681   28.9075   -0.6020 C.ar    1  <0>         0.0461
     18 C18        66.2158   29.3514    0.4260 C.ar    1  <0>         0.0551
     19 C19        67.5949   30.9167   -0.7670 C.2     1  <0>         0.2483
     20 N1         65.7223   29.0764   -1.9581 N.pl3   1  <0>        -0.3565
     21 N2         67.4695   29.8928    0.0925 N.am    1  <0>        -0.2799
     22 O1         66.5918   31.4150   -1.2497 O.2     1  <0>        -0.2699
     23 H1         63.2441   28.1684    7.2870 H       1  <0>         0.0618
     24 H2         72.6185   32.4527   -1.7930 H       1  <0>         0.0618
     25 H3         65.5729   27.7467    6.5862 H       1  <0>         0.0618
     26 H4         61.5401   28.7928    5.6008 H       1  <0>         0.0618
     27 H5         72.1584   30.2336   -0.8190 H       1  <0>         0.0618
     28 H6         70.7533   33.9876   -2.2907 H       1  <0>         0.0618
     29 H7         66.2305   27.9073    4.2141 H       1  <0>         0.0624
     30 H8         62.1799   28.9706    3.2253 H       1  <0>         0.0624
     31 H9         69.8440   29.5448   -0.3629 H       1  <0>         0.0625
     32 H10        68.4234   33.3210   -1.8193 H       1  <0>         0.0625
     33 H11        62.8367   27.7155    1.3127 H       1  <0>         0.0624
     34 H12        63.4681   28.0017   -1.0428 H       1  <0>         0.0637
     35 H13        66.5275   29.5453    2.5397 H       1  <0>         0.0643
     36 H14        66.6247   29.5032   -2.0167 H       1  <0>         0.1424
     37 H15        65.7455   28.1846   -2.4099 H       1  <0>         0.1424
     38 H16        68.2920   29.5039    0.5074 H       1  <0>         0.1552
@<TRIPOS>BOND
     1     1     3   ar
     2     1     4   ar
     3     2     5   ar
     4     2     6   ar
     5     3     7   ar
     6     4     8   ar
     7     5     9   ar
     8     6    10   ar
     9     7    14   ar
    10     8    14   ar
    11     9    15   ar
    12    10    15   ar
    13    11    12   ar
    14    11    16   ar
    15    12    17   ar
    16    13    16   ar
    17    13    18   ar
    18    14    16    1
    19    15    19    1
    20    17    18   ar
    21    17    20    1
    22    18    21    1
    23    19    21   am
    24    19    22    2
    25     1    23    1
    26     2    24    1
    27     3    25    1
    28     4    26    1
    29     5    27    1
    30     6    28    1
    31     7    29    1
    32     8    30    1
    33     9    31    1
    34    10    32    1
    35    11    33    1
    36    12    34    1
    37    13    35    1
    38    20    36    1
    39    20    37    1
    40    21    38    1
@<TRIPOS>SUBSTRUCTURE
     1 <0>         1 TEMP              0 ****  ****    0 ROOT

