
##########                                Name:        LLX_400_3MAX
##########                    Molecular_Weight:             288.349
##########                DOCK_Rotatable_Bonds:                   4
##########                       Formal_Charge:         0.000500143
##########                     HBond_Acceptors:                   3
##########                        HBond_Donors:                   3
##########                         Heavy_Atoms:                  22
##########                            HA_RMSDs:               0.408
##########                            HA_RMSDh:               0.408
##########                            HA_RMSDm:               0.408
##########                          Grid_Score:          -43.780369
##########                     Grid_vdw_energy:          -43.260853
##########                      Grid_es_energy:           -0.519515
##########           Internal_energy_repulsive:           18.950747

@<TRIPOS>MOLECULE
LLX_400_3MAX
 38 40 1 0 0
SMALL
USER_CHARGES


@<TRIPOS>ATOM
      1 C1         63.4862   28.0330    6.3289 C.ar    1  <0>        -0.0617
      2 C2         71.3244   32.2879   -1.5908 C.ar    1  <0>        -0.0617
      3 C3         64.8246   27.9590    5.9365 C.ar    1  <0>        -0.0612
      4 C4         62.4945   28.2242    5.3720 C.ar    1  <0>        -0.0612
      5 C5         71.1324   31.0169   -1.0751 C.ar    1  <0>        -0.0610
      6 C6         70.2275   33.1059   -1.8370 C.ar    1  <0>        -0.0610
      7 C7         65.1911   28.0635    4.5959 C.ar    1  <0>        -0.0540
      8 C8         62.8498   28.3335    4.0302 C.ar    1  <0>        -0.0540
      9 C9         69.8517   30.5622   -0.8135 C.ar    1  <0>        -0.0496
     10 C10        68.9371   32.6623   -1.5719 C.ar    1  <0>        -0.0496
     11 C11        63.7383   27.9373    1.1519 C.ar    1  <0>        -0.0522
     12 C12        64.0777   28.1082   -0.1822 C.ar    1  <0>        -0.0387
     13 C13        65.7622   29.0784    1.8297 C.ar    1  <0>        -0.0310
     14 C14        64.2021   28.2480    3.6187 C.ar    1  <0>        -0.0178
     15 C15        68.7435   31.3690   -1.0620 C.ar    1  <0>         0.0370
     16 C16        64.5739   28.4040    2.1791 C.ar    1  <0>        -0.0160
     17 C17        65.2699   28.7507   -0.5302 C.ar    1  <0>         0.0461
     18 C18        66.0984   29.2443    0.4908 C.ar    1  <0>         0.0551
     19 C19        67.3923   30.8408   -0.7552 C.2     1  <0>         0.2483
     20 N1         65.6074   28.9308   -1.8890 N.pl3   1  <0>        -0.3565
     21 N2         67.3199   29.8494    0.1475 N.am    1  <0>        -0.2799
     22 O1         66.3665   31.2525   -1.2707 O.2     1  <0>        -0.2699
     23 H1         63.2219   27.9420    7.3721 H       1  <0>         0.0618
     24 H2         72.3227   32.6424   -1.8009 H       1  <0>         0.0618
     25 H3         65.5896   27.8182    6.6857 H       1  <0>         0.0618
     26 H4         61.4577   28.2873    5.6676 H       1  <0>         0.0618
     27 H5         71.9823   30.3805   -0.8773 H       1  <0>         0.0618
     28 H6         70.3797   34.0969   -2.2385 H       1  <0>         0.0618
     29 H7         66.2311   28.0027    4.3110 H       1  <0>         0.0624
     30 H8         62.0793   28.4864    3.2890 H       1  <0>         0.0624
     31 H9         69.7097   29.5698   -0.4117 H       1  <0>         0.0625
     32 H10        68.0908   33.3071   -1.7568 H       1  <0>         0.0625
     33 H11        62.8154   27.4367    1.4048 H       1  <0>         0.0624
     34 H12        63.4181   27.7433   -0.9557 H       1  <0>         0.0637
     35 H13        66.4106   29.4658    2.6017 H       1  <0>         0.0643
     36 H14        66.4857   29.4044   -1.9549 H       1  <0>         0.1424
     37 H15        65.6753   28.0391   -2.3365 H       1  <0>         0.1424
     38 H16        68.1595   29.5323    0.5885 H       1  <0>         0.1552
@<TRIPOS>BOND
     1     1     3   ar
     2     1     4   ar
     3     2     5   ar
     4     2     6   ar
     5     3     7   ar
     6     4     8   ar
     7     5     9   ar
     8     6    10   ar
     9     7    14   ar
    10     8    14   ar
    11     9    15   ar
    12    10    15   ar
    13    11    12   ar
    14    11    16   ar
    15    12    17   ar
    16    13    16   ar
    17    13    18   ar
    18    14    16    1
    19    15    19    1
    20    17    18   ar
    21    17    20    1
    22    18    21    1
    23    19    21   am
    24    19    22    2
    25     1    23    1
    26     2    24    1
    27     3    25    1
    28     4    26    1
    29     5    27    1
    30     6    28    1
    31     7    29    1
    32     8    30    1
    33     9    31    1
    34    10    32    1
    35    11    33    1
    36    12    34    1
    37    13    35    1
    38    20    36    1
    39    20    37    1
    40    21    38    1
@<TRIPOS>SUBSTRUCTURE
     1 <0>         1 TEMP              0 ****  ****    0 ROOT

