
##########                                Name:        LLX_400_3MAX
##########                    Molecular_Weight:             288.349
##########                DOCK_Rotatable_Bonds:                   4
##########                       Formal_Charge:         0.000500143
##########                     HBond_Acceptors:                   3
##########                        HBond_Donors:                   3
##########                         Heavy_Atoms:                  22
##########                            HA_RMSDs:               9.430
##########                            HA_RMSDh:               6.775
##########                            HA_RMSDm:               5.408
##########                          Grid_Score:          -39.088531
##########                     Grid_vdw_energy:          -38.868904
##########                      Grid_es_energy:           -0.219627
##########           Internal_energy_repulsive:            5.518769

@<TRIPOS>MOLECULE
LLX_400_3MAX
 38 40 1 0 0
SMALL
USER_CHARGES


@<TRIPOS>ATOM
      1 C1         73.6302   36.8953   -3.5766 C.ar    1  <0>        -0.0617
      2 C2         64.4758   29.4629   -4.4537 C.ar    1  <0>        -0.0617
      3 C3         73.1017   35.9529   -4.4616 C.ar    1  <0>        -0.0612
      4 C4         73.5844   36.6592   -2.2062 C.ar    1  <0>        -0.0612
      5 C5         65.7778   29.0125   -4.5951 C.ar    1  <0>        -0.0610
      6 C6         64.2010   30.5222   -3.5963 C.ar    1  <0>        -0.0610
      7 C7         72.5336   34.7670   -3.9994 C.ar    1  <0>        -0.0540
      8 C8         73.0158   35.4794   -1.7335 C.ar    1  <0>        -0.0540
      9 C9         66.7992   29.6117   -3.8787 C.ar    1  <0>        -0.0496
     10 C10        65.2197   31.1358   -2.8766 C.ar    1  <0>        -0.0496
     11 C11        72.3811   32.5701   -1.0029 C.ar    1  <0>        -0.0522
     12 C12        71.7666   31.4291   -0.5082 C.ar    1  <0>        -0.0387
     13 C13        70.6498   32.7953   -2.6791 C.ar    1  <0>        -0.0310
     14 C14        72.4876   34.5108   -2.6213 C.ar    1  <0>        -0.0178
     15 C15        66.5367   30.6694   -3.0109 C.ar    1  <0>         0.0370
     16 C16        71.8465   33.2651   -2.0995 C.ar    1  <0>        -0.0160
     17 C17        70.5959   30.9452   -1.1002 C.ar    1  <0>         0.0461
     18 C18        70.0399   31.6496   -2.1805 C.ar    1  <0>         0.0551
     19 C19        67.6662   31.2854   -2.2735 C.2     1  <0>         0.2483
     20 N1         69.9684   29.7889   -0.5881 N.pl3   1  <0>        -0.3565
     21 N2         68.8893   31.1415   -2.8085 N.am    1  <0>        -0.2799
     22 O1         67.5423   31.9021   -1.2286 O.2     1  <0>        -0.2699
     23 H1         74.0731   37.8047   -3.9548 H       1  <0>         0.0618
     24 H2         63.6766   28.9928   -5.0077 H       1  <0>         0.0618
     25 H3         73.1339   36.1466   -5.5235 H       1  <0>         0.0618
     26 H4         73.9865   37.3850   -1.5150 H       1  <0>         0.0618
     27 H5         65.9961   28.1935   -5.2645 H       1  <0>         0.0618
     28 H6         63.1850   30.8721   -3.4881 H       1  <0>         0.0618
     29 H7         72.1310   34.0492   -4.6988 H       1  <0>         0.0624
     30 H8         72.9770   35.2995   -0.6693 H       1  <0>         0.0624
     31 H9         67.8121   29.2549   -3.9939 H       1  <0>         0.0625
     32 H10        64.9997   31.9644   -2.2198 H       1  <0>         0.0625
     33 H11        73.2862   32.9300   -0.5366 H       1  <0>         0.0624
     34 H12        72.1943   30.9122    0.3381 H       1  <0>         0.0637
     35 H13        70.2073   33.3252   -3.5097 H       1  <0>         0.0643
     36 H14        69.1508   29.5864   -1.1270 H       1  <0>         0.1424
     37 H15        70.6010   29.0162   -0.6394 H       1  <0>         0.1424
     38 H16        68.9846   30.6589   -3.6790 H       1  <0>         0.1552
@<TRIPOS>BOND
     1     1     3   ar
     2     1     4   ar
     3     2     5   ar
     4     2     6   ar
     5     3     7   ar
     6     4     8   ar
     7     5     9   ar
     8     6    10   ar
     9     7    14   ar
    10     8    14   ar
    11     9    15   ar
    12    10    15   ar
    13    11    12   ar
    14    11    16   ar
    15    12    17   ar
    16    13    16   ar
    17    13    18   ar
    18    14    16    1
    19    15    19    1
    20    17    18   ar
    21    17    20    1
    22    18    21    1
    23    19    21   am
    24    19    22    2
    25     1    23    1
    26     2    24    1
    27     3    25    1
    28     4    26    1
    29     5    27    1
    30     6    28    1
    31     7    29    1
    32     8    30    1
    33     9    31    1
    34    10    32    1
    35    11    33    1
    36    12    34    1
    37    13    35    1
    38    20    36    1
    39    20    37    1
    40    21    38    1
@<TRIPOS>SUBSTRUCTURE
     1 <0>         1 TEMP              0 ****  ****    0 ROOT

