
##########                                Name:        LLX_400_3MAX
##########                    Molecular_Weight:             288.349
##########                DOCK_Rotatable_Bonds:                   4
##########                       Formal_Charge:         0.000500143
##########                     HBond_Acceptors:                   3
##########                        HBond_Donors:                   3
##########                         Heavy_Atoms:                  22
##########                            HA_RMSDs:               9.954
##########                            HA_RMSDh:               7.523
##########                            HA_RMSDm:               5.387
##########                          Grid_Score:          -39.321735
##########                     Grid_vdw_energy:          -38.924660
##########                      Grid_es_energy:           -0.397075
##########           Internal_energy_repulsive:            8.671587

@<TRIPOS>MOLECULE
LLX_400_3MAX
 38 40 1 0 0
SMALL
USER_CHARGES


@<TRIPOS>ATOM
      1 C1         73.0665   38.4259   -3.9240 C.ar    1  <0>        -0.0617
      2 C2         65.5396   29.2603   -4.3700 C.ar    1  <0>        -0.0617
      3 C3         72.4621   37.4740   -4.7482 C.ar    1  <0>        -0.0612
      4 C4         73.3641   38.1079   -2.6027 C.ar    1  <0>        -0.0612
      5 C5         66.8642   29.2643   -4.7746 C.ar    1  <0>        -0.0610
      6 C6         65.1486   30.0286   -3.2793 C.ar    1  <0>        -0.0610
      7 C7         72.1567   36.1989   -4.2754 C.ar    1  <0>        -0.0540
      8 C8         73.0600   36.8382   -2.1190 C.ar    1  <0>        -0.0540
      9 C9         67.7950   30.0257   -4.0894 C.ar    1  <0>        -0.0496
     10 C10        66.0735   30.8021   -2.5875 C.ar    1  <0>        -0.0496
     11 C11        72.8242   33.9348   -1.3500 C.ar    1  <0>        -0.0522
     12 C12        72.4730   32.6954   -0.8355 C.ar    1  <0>        -0.0387
     13 C13        70.9893   33.8195   -2.9240 C.ar    1  <0>        -0.0310
     14 C14        72.4581   35.8605   -2.9482 C.ar    1  <0>        -0.0178
     15 C15        67.4179   30.7946   -2.9906 C.ar    1  <0>         0.0370
     16 C16        72.1028   34.5132   -2.4065 C.ar    1  <0>        -0.0160
     17 C17        71.3871   31.9929   -1.3671 C.ar    1  <0>         0.0461
     18 C18        70.6438   32.5763   -2.4061 C.ar    1  <0>         0.0551
     19 C19        68.4498   31.6017   -2.2958 C.2     1  <0>         0.2483
     20 N1         71.0272   30.7359   -0.8348 N.pl3   1  <0>        -0.3565
     21 N2         69.5803   31.8541   -2.9749 N.am    1  <0>        -0.2799
     22 O1         68.3256   32.0377   -1.1636 O.2     1  <0>        -0.2699
     23 H1         73.3023   39.4062   -4.3114 H       1  <0>         0.0618
     24 H2         64.8129   28.6624   -4.9000 H       1  <0>         0.0618
     25 H3         72.2270   37.7307   -5.7705 H       1  <0>         0.0618
     26 H4         73.8271   38.8398   -1.9575 H       1  <0>         0.0618
     27 H5         67.1708   28.6732   -5.6249 H       1  <0>         0.0618
     28 H6         64.1151   30.0243   -2.9660 H       1  <0>         0.0618
     29 H7         71.6903   35.4754   -4.9277 H       1  <0>         0.0624
     30 H8         73.2874   36.5942   -1.0918 H       1  <0>         0.0624
     31 H9         68.8261   30.0236   -4.4105 H       1  <0>         0.0625
     32 H10        65.7602   31.4037   -1.7472 H       1  <0>         0.0625
     33 H11        73.6670   34.4640   -0.9306 H       1  <0>         0.0624
     34 H12        73.0408   32.2710   -0.0207 H       1  <0>         0.0637
     35 H13        70.4054   34.2536   -3.7222 H       1  <0>         0.0643
     36 H14        70.2352   30.3783   -1.3296 H       1  <0>         0.1424
     37 H15        71.7942   30.1015   -0.9306 H       1  <0>         0.1424
     38 H16        69.6683   31.5185   -3.9128 H       1  <0>         0.1552
@<TRIPOS>BOND
     1     1     3   ar
     2     1     4   ar
     3     2     5   ar
     4     2     6   ar
     5     3     7   ar
     6     4     8   ar
     7     5     9   ar
     8     6    10   ar
     9     7    14   ar
    10     8    14   ar
    11     9    15   ar
    12    10    15   ar
    13    11    12   ar
    14    11    16   ar
    15    12    17   ar
    16    13    16   ar
    17    13    18   ar
    18    14    16    1
    19    15    19    1
    20    17    18   ar
    21    17    20    1
    22    18    21    1
    23    19    21   am
    24    19    22    2
    25     1    23    1
    26     2    24    1
    27     3    25    1
    28     4    26    1
    29     5    27    1
    30     6    28    1
    31     7    29    1
    32     8    30    1
    33     9    31    1
    34    10    32    1
    35    11    33    1
    36    12    34    1
    37    13    35    1
    38    20    36    1
    39    20    37    1
    40    21    38    1
@<TRIPOS>SUBSTRUCTURE
     1 <0>         1 TEMP              0 ****  ****    0 ROOT

