
##########                                Name:        LLX_400_3MAX
##########                    Molecular_Weight:             288.349
##########                DOCK_Rotatable_Bonds:                   4
##########                       Formal_Charge:         0.000500143
##########                     HBond_Acceptors:                   3
##########                        HBond_Donors:                   3
##########                         Heavy_Atoms:                  22
##########                            HA_RMSDs:               0.423
##########                            HA_RMSDh:               0.423
##########                            HA_RMSDm:               0.423
##########                          Grid_Score:          -41.246082
##########                     Grid_vdw_energy:          -40.913166
##########                      Grid_es_energy:           -0.332915
##########           Internal_energy_repulsive:           16.232557

@<TRIPOS>MOLECULE
LLX_400_3MAX
 38 40 1 0 0
SMALL
USER_CHARGES


@<TRIPOS>ATOM
      1 C1         63.4534   28.0311    6.1518 C.ar    1  <0>        -0.0617
      2 C2         71.6226   32.0092   -1.5569 C.ar    1  <0>        -0.0617
      3 C3         64.8034   28.0150    5.7941 C.ar    1  <0>        -0.0612
      4 C4         62.4787   28.1635    5.1679 C.ar    1  <0>        -0.0612
      5 C5         71.3635   30.7969   -0.9393 C.ar    1  <0>        -0.0610
      6 C6         70.5671   32.8343   -1.9282 C.ar    1  <0>        -0.0610
      7 C7         65.1988   28.1196    4.4617 C.ar    1  <0>        -0.0540
      8 C8         62.8627   28.2723    3.8340 C.ar    1  <0>        -0.0540
      9 C9         70.0573   30.4071   -0.7001 C.ar    1  <0>        -0.0496
     10 C10        69.2514   32.4561   -1.6871 C.ar    1  <0>        -0.0496
     11 C11        63.7848   27.9919    0.9804 C.ar    1  <0>        -0.0522
     12 C12        64.1526   28.1621   -0.3462 C.ar    1  <0>        -0.0387
     13 C13        65.8557   29.0153    1.7026 C.ar    1  <0>        -0.0310
     14 C14        64.2277   28.2452    3.4577 C.ar    1  <0>        -0.0178
     15 C15        68.9901   31.2212   -1.0732 C.ar    1  <0>         0.0370
     16 C16        64.6285   28.4002    2.0258 C.ar    1  <0>        -0.0160
     17 C17        65.3820   28.7452   -0.6683 C.ar    1  <0>         0.0461
     18 C18        66.2201   29.1807    0.3711 C.ar    1  <0>         0.0551
     19 C19        67.6089   30.7645   -0.7859 C.2     1  <0>         0.2483
     20 N1         65.7487   28.9250   -2.0196 N.pl3   1  <0>        -0.3565
     21 N2         67.4768   29.7249    0.0535 N.am    1  <0>        -0.2799
     22 O1         66.6094   31.2745   -1.2638 O.2     1  <0>        -0.2699
     23 H1         63.1669   27.9411    7.1892 H       1  <0>         0.0618
     24 H2         72.6411   32.3125   -1.7495 H       1  <0>         0.0618
     25 H3         65.5546   27.9197    6.5640 H       1  <0>         0.0618
     26 H4         61.4328   28.1816    5.4366 H       1  <0>         0.0618
     27 H5         72.1810   30.1556   -0.6443 H       1  <0>         0.0618
     28 H6         70.7716   33.7794   -2.4091 H       1  <0>         0.0618
     29 H7         66.2475   28.1040    4.2037 H       1  <0>         0.0624
     30 H8         62.1052   28.3795    3.0718 H       1  <0>         0.0624
     31 H9         69.8629   29.4602   -0.2182 H       1  <0>         0.0625
     32 H10        68.4371   33.1069   -1.9697 H       1  <0>         0.0625
     33 H11        62.8332   27.5376    1.2132 H       1  <0>         0.0624
     34 H12        63.4863   27.8428   -1.1339 H       1  <0>         0.0637
     35 H13        66.5122   29.3576    2.4890 H       1  <0>         0.0643
     36 H14        66.6516   29.3523   -2.0664 H       1  <0>         0.1424
     37 H15        65.7762   28.0370   -2.4784 H       1  <0>         0.1424
     38 H16        68.2963   29.3260    0.4649 H       1  <0>         0.1552
@<TRIPOS>BOND
     1     1     3   ar
     2     1     4   ar
     3     2     5   ar
     4     2     6   ar
     5     3     7   ar
     6     4     8   ar
     7     5     9   ar
     8     6    10   ar
     9     7    14   ar
    10     8    14   ar
    11     9    15   ar
    12    10    15   ar
    13    11    12   ar
    14    11    16   ar
    15    12    17   ar
    16    13    16   ar
    17    13    18   ar
    18    14    16    1
    19    15    19    1
    20    17    18   ar
    21    17    20    1
    22    18    21    1
    23    19    21   am
    24    19    22    2
    25     1    23    1
    26     2    24    1
    27     3    25    1
    28     4    26    1
    29     5    27    1
    30     6    28    1
    31     7    29    1
    32     8    30    1
    33     9    31    1
    34    10    32    1
    35    11    33    1
    36    12    34    1
    37    13    35    1
    38    20    36    1
    39    20    37    1
    40    21    38    1
@<TRIPOS>SUBSTRUCTURE
     1 <0>         1 TEMP              0 ****  ****    0 ROOT

