
##########                                Name:        LLX_400_3MAX
##########                    Molecular_Weight:             288.349
##########                DOCK_Rotatable_Bonds:                   4
##########                       Formal_Charge:         0.000500143
##########                     HBond_Acceptors:                   3
##########                        HBond_Donors:                   3
##########                         Heavy_Atoms:                  22
##########                            HA_RMSDs:               1.086
##########                            HA_RMSDh:               1.086
##########                            HA_RMSDm:               0.921
##########                          Grid_Score:          -41.982712
##########                     Grid_vdw_energy:          -40.847408
##########                      Grid_es_energy:           -1.135302
##########           Internal_energy_repulsive:           13.951636

@<TRIPOS>MOLECULE
LLX_400_3MAX
 38 40 1 0 0
SMALL
USER_CHARGES


@<TRIPOS>ATOM
      1 C1         63.6485   28.0339    5.3856 C.ar    1  <0>        -0.0617
      2 C2         72.4416   32.4623   -1.3037 C.ar    1  <0>        -0.0617
      3 C3         65.0094   27.9137    5.0954 C.ar    1  <0>        -0.0612
      4 C4         62.7555   28.3897    4.3798 C.ar    1  <0>        -0.0612
      5 C5         72.1005   31.2383   -0.7525 C.ar    1  <0>        -0.0610
      6 C6         71.4425   33.3278   -1.7345 C.ar    1  <0>        -0.0610
      7 C7         65.4956   28.1346    3.8080 C.ar    1  <0>        -0.0540
      8 C8         63.2310   28.6162    3.0908 C.ar    1  <0>        -0.0540
      9 C9         70.7692   30.8773   -0.6386 C.ar    1  <0>        -0.0496
     10 C10        70.1020   32.9785   -1.6192 C.ar    1  <0>        -0.0496
     11 C11        64.3270   28.4999    0.2679 C.ar    1  <0>        -0.0522
     12 C12        64.7902   28.7878   -1.0075 C.ar    1  <0>        -0.0387
     13 C13        66.3755   29.3637    1.2244 C.ar    1  <0>        -0.0310
     14 C14        64.6068   28.4858    2.7815 C.ar    1  <0>        -0.0178
     15 C15        69.7585   31.7322   -1.0727 C.ar    1  <0>         0.0370
     16 C16        65.1097   28.7678    1.4022 C.ar    1  <0>        -0.0160
     17 C17        66.0570   29.3515   -1.1875 C.ar    1  <0>         0.0461
     18 C18        66.8355   29.6475   -0.0567 C.ar    1  <0>         0.0551
     19 C19        68.3468   31.3048   -0.9196 C.2     1  <0>         0.2483
     20 N1         66.5212   29.6516   -2.4865 N.pl3   1  <0>        -0.3565
     21 N2         68.1280   30.1711   -0.2343 N.am    1  <0>        -0.2799
     22 O1         67.3961   31.9179   -1.3753 O.2     1  <0>        -0.2699
     23 H1         63.2903   27.8511    6.3880 H       1  <0>         0.0618
     24 H2         73.4800   32.7433   -1.3985 H       1  <0>         0.0618
     25 H3         65.6976   27.6447    5.8830 H       1  <0>         0.0618
     26 H4         61.7023   28.4894    4.5970 H       1  <0>         0.0618
     27 H5         72.8735   30.5655   -0.4115 H       1  <0>         0.0618
     28 H6         71.7109   34.2819   -2.1634 H       1  <0>         0.0618
     29 H7         66.5511   28.0359    3.6019 H       1  <0>         0.0624
     30 H8         62.5373   28.8967    2.3121 H       1  <0>         0.0624
     31 H9         70.5109   29.9211   -0.2080 H       1  <0>         0.0625
     32 H10        69.3314   33.6604   -1.9473 H       1  <0>         0.0625
     33 H11        63.3474   28.0621    0.3905 H       1  <0>         0.0624
     34 H12        64.1695   28.5755   -1.8655 H       1  <0>         0.0637
     35 H13        66.9872   29.5994    2.0827 H       1  <0>         0.0643
     36 H14        67.4385   30.0457   -2.4305 H       1  <0>         0.1424
     37 H15        66.5513   28.8136   -3.0313 H       1  <0>         0.1424
     38 H16        68.9072   29.6849    0.1613 H       1  <0>         0.1552
@<TRIPOS>BOND
     1     1     3   ar
     2     1     4   ar
     3     2     5   ar
     4     2     6   ar
     5     3     7   ar
     6     4     8   ar
     7     5     9   ar
     8     6    10   ar
     9     7    14   ar
    10     8    14   ar
    11     9    15   ar
    12    10    15   ar
    13    11    12   ar
    14    11    16   ar
    15    12    17   ar
    16    13    16   ar
    17    13    18   ar
    18    14    16    1
    19    15    19    1
    20    17    18   ar
    21    17    20    1
    22    18    21    1
    23    19    21   am
    24    19    22    2
    25     1    23    1
    26     2    24    1
    27     3    25    1
    28     4    26    1
    29     5    27    1
    30     6    28    1
    31     7    29    1
    32     8    30    1
    33     9    31    1
    34    10    32    1
    35    11    33    1
    36    12    34    1
    37    13    35    1
    38    20    36    1
    39    20    37    1
    40    21    38    1
@<TRIPOS>SUBSTRUCTURE
     1 <0>         1 TEMP              0 ****  ****    0 ROOT

