
##########                                Name:        AGE_500_3F07
##########                    Molecular_Weight:             286.331
##########                DOCK_Rotatable_Bonds:                   8
##########                       Formal_Charge:         0.000100002
##########                     HBond_Acceptors:                   5
##########                        HBond_Donors:                   2
##########                         Heavy_Atoms:                  21
##########                            HA_RMSDs:               9.004
##########                            HA_RMSDh:               7.972
##########                            HA_RMSDm:               7.329
##########                          Grid_Score:          -38.922039
##########                     Grid_vdw_energy:          -36.519100
##########                      Grid_es_energy:           -2.402940
##########           Internal_energy_repulsive:            4.707693

@<TRIPOS>MOLECULE
AGE_500_3F07
 39 40 1 0 0
SMALL
USER_CHARGES


@<TRIPOS>ATOM
      1 C1        -28.9788   30.5987  -40.7257 C.3     1  <0>         0.0050
      2 C2        -31.1507   25.4789  -36.4689 C.ar    1  <0>        -0.0617
      3 C3        -30.1678   26.4572  -36.9315 C.ar    1  <0>        -0.0615
      4 C4        -31.5362   24.3710  -37.3504 C.ar    1  <0>        -0.0615
      5 C5        -29.5746   26.3281  -38.2707 C.ar    1  <0>        -0.0582
      6 C6        -30.9366   24.2560  -38.6745 C.ar    1  <0>        -0.0582
      7 C7        -27.3206   27.8861  -42.5143 C.2     1  <0>        -0.0328
      8 C8        -29.0836   28.1630  -41.0646 C.2     1  <0>         0.0067
      9 C9        -26.5107   30.4263  -42.7039 C.3     1  <0>        -0.0060
     10 C10       -25.3902   30.4677  -43.5485 C.3     1  <0>         0.0311
     11 C11       -29.4368   24.9083  -40.6231 C.3     1  <0>         0.0357
     12 C12       -29.9429   25.2199  -39.1847 C.ar    1  <0>        -0.0399
     13 C13       -28.3773   27.2044  -41.7937 C.2     1  <0>         0.0331
     14 C14       -27.3737   29.2684  -42.2258 C.2     1  <0>         0.0113
     15 C15       -25.1746   31.6084  -44.5636 C.2     1  <0>         0.2358
     16 C16       -28.7259   25.7083  -41.7904 C.2     1  <0>         0.1687
     17 N1        -24.0740   31.4891  -45.3558 N.am    1  <0>        -0.1975
     18 N2        -28.4790   29.3490  -41.3372 N.pl3   1  <0>        -0.3121
     19 O1        -23.7740   32.4020  -46.2644 O.3     1  <0>        -0.2952
     20 O2        -25.9036   32.5803  -44.6917 O.2     1  <0>        -0.2737
     21 O3        -28.4176   25.1131  -42.8043 O.2     1  <0>        -0.2917
     22 H1        -28.3638   31.4451  -41.0652 H       1  <0>         0.0431
     23 H2        -30.0243   30.7612  -41.0266 H       1  <0>         0.0431
     24 H3        -28.9206   30.5195  -39.6302 H       1  <0>         0.0431
     25 H4        -31.5894   25.5708  -35.4863 H       1  <0>         0.0618
     26 H5        -29.8773   27.2754  -36.2892 H       1  <0>         0.0618
     27 H6        -32.2620   23.6429  -37.0195 H       1  <0>         0.0618
     28 H7        -28.8510   27.0603  -38.5977 H       1  <0>         0.0620
     29 H8        -31.2317   23.4320  -39.3073 H       1  <0>         0.0620
     30 H9        -26.6047   27.4118  -43.1693 H       1  <0>         0.0640
     31 H10       -29.9332   27.9967  -40.4187 H       1  <0>         0.0790
     32 H11       -26.1185   30.8392  -41.7628 H       1  <0>         0.0330
     33 H12       -27.2346   31.0641  -43.2324 H       1  <0>         0.0330
     34 H13       -24.5183   30.5015  -42.8787 H       1  <0>         0.0363
     35 H14       -25.4394   29.5465  -44.1477 H       1  <0>         0.0363
     36 H15       -28.6991   24.1169  -40.4246 H       1  <0>         0.0394
     37 H16       -30.3688   24.5931  -41.1151 H       1  <0>         0.0394
     38 H17       -23.4788   30.6928  -45.2483 H       1  <0>         0.1822
     39 H18       -24.3654   33.1406  -46.1791 H       1  <0>         0.2414
@<TRIPOS>BOND
     1     1    18    1
     2     2     3   ar
     3     2     4   ar
     4     3     5   ar
     5     4     6   ar
     6     5    12   ar
     7     6    12   ar
     8     7    13    1
     9     7    14    2
    10     8    13    2
    11     8    18    1
    12     9    10    1
    13     9    14    1
    14    10    15    1
    15    11    12    1
    16    11    16    1
    17    13    16    1
    18    14    18    1
    19    15    17   am
    20    15    20    2
    21    16    21    2
    22    17    19    1
    23     1    22    1
    24     1    23    1
    25     1    24    1
    26     2    25    1
    27     3    26    1
    28     4    27    1
    29     5    28    1
    30     6    29    1
    31     7    30    1
    32     8    31    1
    33     9    32    1
    34     9    33    1
    35    10    34    1
    36    10    35    1
    37    11    36    1
    38    11    37    1
    39    17    38    1
    40    19    39    1
@<TRIPOS>SUBSTRUCTURE
     1 <0>         1 TEMP              0 ****  ****    0 ROOT

