
##########                                Name:        AGE_500_3F07
##########                    Molecular_Weight:             286.331
##########                DOCK_Rotatable_Bonds:                   8
##########                       Formal_Charge:         0.000100002
##########                     HBond_Acceptors:                   5
##########                        HBond_Donors:                   2
##########                         Heavy_Atoms:                  21
##########                            HA_RMSDs:               8.590
##########                            HA_RMSDh:               7.529
##########                            HA_RMSDm:               6.954
##########                          Grid_Score:          -39.556313
##########                     Grid_vdw_energy:          -37.408268
##########                      Grid_es_energy:           -2.148045
##########           Internal_energy_repulsive:            3.182119

@<TRIPOS>MOLECULE
AGE_500_3F07
 39 40 1 0 0
SMALL
USER_CHARGES


@<TRIPOS>ATOM
      1 C1        -29.3298   31.3181  -40.0520 C.3     1  <0>         0.0050
      2 C2        -31.2162   24.8413  -37.8369 C.ar    1  <0>        -0.0617
      3 C3        -30.2625   25.9369  -37.6720 C.ar    1  <0>        -0.0615
      4 C4        -31.2496   24.0978  -39.1016 C.ar    1  <0>        -0.0615
      5 C5        -29.3473   26.2877  -38.7682 C.ar    1  <0>        -0.0582
      6 C6        -30.3336   24.4568  -40.1777 C.ar    1  <0>        -0.0582
      7 C7        -26.6533   29.3933  -41.6136 C.2     1  <0>        -0.0328
      8 C8        -28.8398   29.0880  -40.9710 C.2     1  <0>         0.0067
      9 C9        -26.3285   31.9357  -40.8551 C.3     1  <0>        -0.0060
     10 C10       -24.9979   32.3037  -41.1097 C.3     1  <0>         0.0311
     11 C11       -28.4807   25.7675  -41.3268 C.3     1  <0>         0.0357
     12 C12       -29.3562   25.5554  -40.0577 C.ar    1  <0>        -0.0399
     13 C13       -27.7490   28.4461  -41.5606 C.2     1  <0>         0.0331
     14 C14       -27.0690   30.6216  -41.0520 C.2     1  <0>         0.0113
     15 C15       -24.5668   33.7798  -41.2252 C.2     1  <0>         0.2358
     16 C16       -27.7839   26.9910  -42.0519 C.2     1  <0>         0.1687
     17 N1        -23.2582   33.9864  -41.5386 N.am    1  <0>        -0.1975
     18 N2        -28.4147   30.3475  -40.6891 N.pl3   1  <0>        -0.3121
     19 O1        -22.7616   35.2056  -41.6635 O.3     1  <0>        -0.2952
     20 O2        -25.3018   34.7405  -41.0540 O.2     1  <0>        -0.2737
     21 O3        -27.2167   26.7986  -43.1094 O.2     1  <0>        -0.2917
     22 H1        -28.8066   32.2746  -39.9056 H       1  <0>         0.0431
     23 H2        -30.2058   31.4748  -40.6986 H       1  <0>         0.0431
     24 H3        -29.6583   30.9272  -39.0777 H       1  <0>         0.0431
     25 H4        -31.8906   24.5812  -37.0345 H       1  <0>         0.0618
     26 H5        -30.2300   26.4890  -36.7444 H       1  <0>         0.0618
     27 H6        -31.9506   23.2871  -39.2349 H       1  <0>         0.0618
     28 H7        -28.6499   27.1008  -38.6305 H       1  <0>         0.0620
     29 H8        -30.3721   23.8958  -41.0998 H       1  <0>         0.0620
     30 H9        -25.6727   29.1920  -42.0189 H       1  <0>         0.0640
     31 H10       -29.8173   28.6707  -40.7791 H       1  <0>         0.0790
     32 H11       -26.4225   32.1055  -39.7723 H       1  <0>         0.0330
     33 H12       -26.8966   32.6301  -41.4916 H       1  <0>         0.0330
     34 H13       -24.4138   31.8914  -40.2737 H       1  <0>         0.0363
     35 H14       -24.7469   31.8475  -42.0786 H       1  <0>         0.0363
     36 H15       -27.6133   25.1306  -41.0985 H       1  <0>         0.0394
     37 H16       -29.1559   25.4060  -42.1164 H       1  <0>         0.0394
     38 H17       -22.6589   33.1981  -41.6776 H       1  <0>         0.1822
     39 H18       -23.3621   35.8336  -41.2795 H       1  <0>         0.2414
@<TRIPOS>BOND
     1     1    18    1
     2     2     3   ar
     3     2     4   ar
     4     3     5   ar
     5     4     6   ar
     6     5    12   ar
     7     6    12   ar
     8     7    13    1
     9     7    14    2
    10     8    13    2
    11     8    18    1
    12     9    10    1
    13     9    14    1
    14    10    15    1
    15    11    12    1
    16    11    16    1
    17    13    16    1
    18    14    18    1
    19    15    17   am
    20    15    20    2
    21    16    21    2
    22    17    19    1
    23     1    22    1
    24     1    23    1
    25     1    24    1
    26     2    25    1
    27     3    26    1
    28     4    27    1
    29     5    28    1
    30     6    29    1
    31     7    30    1
    32     8    31    1
    33     9    32    1
    34     9    33    1
    35    10    34    1
    36    10    35    1
    37    11    36    1
    38    11    37    1
    39    17    38    1
    40    19    39    1
@<TRIPOS>SUBSTRUCTURE
     1 <0>         1 TEMP              0 ****  ****    0 ROOT

