
##########                                Name:        AGE_500_3F07
##########                    Molecular_Weight:             286.331
##########                DOCK_Rotatable_Bonds:                   8
##########                       Formal_Charge:         0.000100002
##########                     HBond_Acceptors:                   5
##########                        HBond_Donors:                   2
##########                         Heavy_Atoms:                  21
##########                            HA_RMSDs:               8.543
##########                            HA_RMSDh:               7.364
##########                            HA_RMSDm:               6.769
##########                          Grid_Score:          -38.697289
##########                     Grid_vdw_energy:          -36.574520
##########                      Grid_es_energy:           -2.122767
##########           Internal_energy_repulsive:            3.254397

@<TRIPOS>MOLECULE
AGE_500_3F07
 39 40 1 0 0
SMALL
USER_CHARGES


@<TRIPOS>ATOM
      1 C1        -28.9303   31.7724  -40.3095 C.3     1  <0>         0.0050
      2 C2        -30.6647   25.0346  -37.1519 C.ar    1  <0>        -0.0617
      3 C3        -29.8604   26.2402  -37.3438 C.ar    1  <0>        -0.0615
      4 C4        -31.0207   24.2120  -38.3138 C.ar    1  <0>        -0.0615
      5 C5        -29.4156   26.6216  -38.6925 C.ar    1  <0>        -0.0582
      6 C6        -30.5694   24.6028  -39.6440 C.ar    1  <0>        -0.0582
      7 C7        -26.8664   29.1062  -41.7018 C.2     1  <0>        -0.0328
      8 C8        -29.0793   29.4845  -41.2048 C.2     1  <0>         0.0067
      9 C9        -25.8379   31.4435  -40.9121 C.3     1  <0>        -0.0060
     10 C10       -24.4512   31.3129  -40.7369 C.3     1  <0>         0.0311
     11 C11       -29.3901   26.0393  -41.3811 C.3     1  <0>         0.0357
     12 C12       -29.7582   25.8112  -39.8863 C.ar    1  <0>        -0.0399
     13 C13       -28.1981   28.5345  -41.7247 C.2     1  <0>         0.0331
     14 C14       -26.9266   30.4111  -41.1629 C.2     1  <0>         0.0113
     15 C15       -23.4963   32.5181  -40.8536 C.2     1  <0>         0.2358
     16 C16       -28.6394   27.1503  -42.2239 C.2     1  <0>         0.1687
     17 N1        -22.2624   32.3448  -40.3054 N.am    1  <0>        -0.1975
     18 N2        -28.3125   30.5613  -40.8899 N.pl3   1  <0>        -0.3121
     19 O1        -21.3519   33.3034  -40.3352 O.3     1  <0>        -0.2952
     20 O2        -23.7725   33.5827  -41.3855 O.2     1  <0>        -0.2737
     21 O3        -28.3766   26.9232  -43.3886 O.2     1  <0>        -0.2917
     22 H1        -28.1531   32.5286  -40.1249 H       1  <0>         0.0431
     23 H2        -29.6751   32.1761  -41.0112 H       1  <0>         0.0431
     24 H3        -29.4228   31.5138  -39.3605 H       1  <0>         0.0431
     25 H4        -30.9942   24.7517  -36.1631 H       1  <0>         0.0618
     26 H5        -29.5928   26.8512  -36.4945 H       1  <0>         0.0618
     27 H6        -31.6151   23.3198  -38.1840 H       1  <0>         0.0618
     28 H7        -28.8233   27.5160  -38.8170 H       1  <0>         0.0620
     29 H8        -30.8397   23.9828  -40.4859 H       1  <0>         0.0620
     30 H9        -25.9687   28.6122  -42.0431 H       1  <0>         0.0640
     31 H10       -30.1472   29.3845  -41.0790 H       1  <0>         0.0790
     32 H11       -26.1577   31.9062  -39.9667 H       1  <0>         0.0330
     33 H12       -25.9089   32.0891  -41.7998 H       1  <0>         0.0330
     34 H13       -24.3188   30.9309  -39.7139 H       1  <0>         0.0363
     35 H14       -24.1230   30.6020  -41.5095 H       1  <0>         0.0363
     36 H15       -28.7668   25.1564  -41.5860 H       1  <0>         0.0394
     37 H16       -30.3859   26.0515  -41.8482 H       1  <0>         0.0394
     38 H17       -22.0394   31.4726  -39.8702 H       1  <0>         0.1822
     39 H18       -21.7025   34.0598  -40.7907 H       1  <0>         0.2414
@<TRIPOS>BOND
     1     1    18    1
     2     2     3   ar
     3     2     4   ar
     4     3     5   ar
     5     4     6   ar
     6     5    12   ar
     7     6    12   ar
     8     7    13    1
     9     7    14    2
    10     8    13    2
    11     8    18    1
    12     9    10    1
    13     9    14    1
    14    10    15    1
    15    11    12    1
    16    11    16    1
    17    13    16    1
    18    14    18    1
    19    15    17   am
    20    15    20    2
    21    16    21    2
    22    17    19    1
    23     1    22    1
    24     1    23    1
    25     1    24    1
    26     2    25    1
    27     3    26    1
    28     4    27    1
    29     5    28    1
    30     6    29    1
    31     7    30    1
    32     8    31    1
    33     9    32    1
    34     9    33    1
    35    10    34    1
    36    10    35    1
    37    11    36    1
    38    11    37    1
    39    17    38    1
    40    19    39    1
@<TRIPOS>SUBSTRUCTURE
     1 <0>         1 TEMP              0 ****  ****    0 ROOT

