
##########                                Name:        AGE_500_3F07
##########                    Molecular_Weight:             286.331
##########                DOCK_Rotatable_Bonds:                   8
##########                       Formal_Charge:         0.000100002
##########                     HBond_Acceptors:                   5
##########                        HBond_Donors:                   2
##########                         Heavy_Atoms:                  21
##########                            HA_RMSDs:               8.613
##########                            HA_RMSDh:               7.433
##########                            HA_RMSDm:               6.833
##########                          Grid_Score:          -37.626568
##########                     Grid_vdw_energy:          -35.781261
##########                      Grid_es_energy:           -1.845307
##########           Internal_energy_repulsive:            3.068943

@<TRIPOS>MOLECULE
AGE_500_3F07
 39 40 1 0 0
SMALL
USER_CHARGES


@<TRIPOS>ATOM
      1 C1        -28.8857   31.6326  -40.1454 C.3     1  <0>         0.0050
      2 C2        -30.8611   25.1263  -37.0431 C.ar    1  <0>        -0.0617
      3 C3        -30.0427   26.3217  -37.2386 C.ar    1  <0>        -0.0615
      4 C4        -31.1261   24.2389  -38.1813 C.ar    1  <0>        -0.0615
      5 C5        -29.4931   26.6284  -38.5675 C.ar    1  <0>        -0.0582
      6 C6        -30.5714   24.5560  -39.4919 C.ar    1  <0>        -0.0582
      7 C7        -26.8367   29.0326  -41.6781 C.2     1  <0>        -0.0328
      8 C8        -29.0230   29.3424  -41.0369 C.2     1  <0>         0.0067
      9 C9        -25.8305   31.3991  -40.9489 C.3     1  <0>        -0.0060
     10 C10       -24.4301   31.3146  -40.8992 C.3     1  <0>         0.0311
     11 C11       -29.2577   25.8967  -41.2090 C.3     1  <0>         0.0357
     12 C12       -29.7422   25.7515  -39.7372 C.ar    1  <0>        -0.0399
     13 C13       -28.1490   28.4205  -41.6164 C.2     1  <0>         0.0331
     14 C14       -26.9013   30.3343  -41.1319 C.2     1  <0>         0.0113
     15 C15       -23.5315   32.5603  -41.0375 C.2     1  <0>         0.2358
     16 C16       -28.5796   27.0243  -42.0905 C.2     1  <0>         0.1687
     17 N1        -22.2620   32.3235  -41.4680 N.am    1  <0>        -0.1975
     18 N2        -28.2704   30.4417  -40.7689 N.pl3   1  <0>        -0.3121
     19 O1        -21.3906   33.3059  -41.6245 O.3     1  <0>        -0.2952
     20 O2        -23.8770   33.7053  -40.7884 O.2     1  <0>        -0.2737
     21 O3        -28.3708   26.8009  -43.2668 O.2     1  <0>        -0.2917
     22 H1        -28.1214   32.4119  -40.0091 H       1  <0>         0.0431
     23 H2        -29.6865   32.0143  -40.7958 H       1  <0>         0.0431
     24 H3        -29.3073   31.3577  -39.1674 H       1  <0>         0.0431
     25 H4        -31.2675   24.8981  -36.0687 H       1  <0>         0.0618
     26 H5        -29.8417   26.9801  -36.4065 H       1  <0>         0.0618
     27 H6        -31.7301   23.3535  -38.0487 H       1  <0>         0.0618
     28 H7        -28.8916   27.5163  -38.6952 H       1  <0>         0.0620
     29 H8        -30.7757   23.8890  -40.3163 H       1  <0>         0.0620
     30 H9        -25.9485   28.5668  -42.0788 H       1  <0>         0.0640
     31 H10       -30.0770   29.2097  -40.8424 H       1  <0>         0.0790
     32 H11       -26.0811   31.8267  -39.9668 H       1  <0>         0.0330
     33 H12       -26.0015   32.0632  -41.8089 H       1  <0>         0.0330
     34 H13       -24.1960   30.8915  -39.9111 H       1  <0>         0.0363
     35 H14       -24.1457   30.6533  -41.7309 H       1  <0>         0.0363
     36 H15       -28.5051   25.0966  -41.2675 H       1  <0>         0.0394
     37 H16       -30.1937   25.7261  -41.7611 H       1  <0>         0.0394
     38 H17       -21.9819   31.3852  -41.6705 H       1  <0>         0.1822
     39 H18       -21.8466   34.1393  -41.6121 H       1  <0>         0.2414
@<TRIPOS>BOND
     1     1    18    1
     2     2     3   ar
     3     2     4   ar
     4     3     5   ar
     5     4     6   ar
     6     5    12   ar
     7     6    12   ar
     8     7    13    1
     9     7    14    2
    10     8    13    2
    11     8    18    1
    12     9    10    1
    13     9    14    1
    14    10    15    1
    15    11    12    1
    16    11    16    1
    17    13    16    1
    18    14    18    1
    19    15    17   am
    20    15    20    2
    21    16    21    2
    22    17    19    1
    23     1    22    1
    24     1    23    1
    25     1    24    1
    26     2    25    1
    27     3    26    1
    28     4    27    1
    29     5    28    1
    30     6    29    1
    31     7    30    1
    32     8    31    1
    33     9    32    1
    34     9    33    1
    35    10    34    1
    36    10    35    1
    37    11    36    1
    38    11    37    1
    39    17    38    1
    40    19    39    1
@<TRIPOS>SUBSTRUCTURE
     1 <0>         1 TEMP              0 ****  ****    0 ROOT

