
##########                                Name:        AGE_500_3F07
##########                    Molecular_Weight:             286.331
##########                DOCK_Rotatable_Bonds:                   8
##########                       Formal_Charge:         0.000100002
##########                     HBond_Acceptors:                   5
##########                        HBond_Donors:                   2
##########                         Heavy_Atoms:                  21
##########                            HA_RMSDs:               8.686
##########                            HA_RMSDh:               7.517
##########                            HA_RMSDm:               6.909
##########                          Grid_Score:          -37.855679
##########                     Grid_vdw_energy:          -35.827797
##########                      Grid_es_energy:           -2.027881
##########           Internal_energy_repulsive:            3.427054

@<TRIPOS>MOLECULE
AGE_500_3F07
 39 40 1 0 0
SMALL
USER_CHARGES


@<TRIPOS>ATOM
      1 C1        -28.9881   31.4801  -39.9975 C.3     1  <0>         0.0050
      2 C2        -30.9900   25.2437  -36.6887 C.ar    1  <0>        -0.0617
      3 C3        -30.1254   26.3974  -36.9305 C.ar    1  <0>        -0.0615
      4 C4        -31.2806   24.3165  -37.7884 C.ar    1  <0>        -0.0615
      5 C5        -29.5553   26.6230  -38.2671 C.ar    1  <0>        -0.0582
      6 C6        -30.7052   24.5532  -39.1070 C.ar    1  <0>        -0.0582
      7 C7        -26.9305   28.9312  -41.6028 C.2     1  <0>        -0.0328
      8 C8        -29.0699   29.1510  -40.7891 C.2     1  <0>         0.0067
      9 C9        -26.0021   31.3759  -41.0497 C.3     1  <0>        -0.0060
     10 C10       -24.5986   31.3651  -41.0796 C.3     1  <0>         0.0311
     11 C11       -29.3297   25.7647  -40.8711 C.3     1  <0>         0.0357
     12 C12       -29.8295   25.7043  -39.3984 C.ar    1  <0>        -0.0399
     13 C13       -28.1966   28.2535  -41.4067 C.2     1  <0>         0.0331
     14 C14       -27.0227   30.2491  -41.1014 C.2     1  <0>         0.0113
     15 C15       -23.7737   32.6653  -41.1648 C.2     1  <0>         0.2358
     16 C16       -28.5859   26.8179  -41.7907 C.2     1  <0>         0.1687
     17 N1        -22.4269   32.5157  -41.0347 N.am    1  <0>        -0.1975
     18 N2        -28.3607   30.2987  -40.6270 N.pl3   1  <0>        -0.3121
     19 O1        -21.6081   33.5529  -41.0853 O.3     1  <0>        -0.2952
     20 O2        -24.2401   33.7821  -41.3314 O.2     1  <0>        -0.2737
     21 O3        -28.2841   26.4957  -42.9231 O.2     1  <0>        -0.2917
     22 H1        -28.2603   32.3038  -39.9557 H       1  <0>         0.0431
     23 H2        -29.8605   31.7915  -40.5908 H       1  <0>         0.0431
     24 H3        -29.3107   31.2240  -38.9776 H       1  <0>         0.0431
     25 H4        -31.4115   25.0751  -35.7087 H       1  <0>         0.0618
     26 H5        -29.9053   27.0846  -36.1270 H       1  <0>         0.0618
     27 H6        -31.9187   23.4613  -37.6214 H       1  <0>         0.0618
     28 H7        -28.9197   27.4810  -38.4292 H       1  <0>         0.0620
     29 H8        -30.9290   23.8578  -39.9025 H       1  <0>         0.0620
     30 H9        -26.0540   28.4969  -42.0604 H       1  <0>         0.0640
     31 H10       -30.0949   28.9706  -40.5005 H       1  <0>         0.0790
     32 H11       -26.2188   31.8534  -40.0827 H       1  <0>         0.0330
     33 H12       -26.2575   31.9732  -41.9374 H       1  <0>         0.0330
     34 H13       -24.2883   30.8810  -40.1419 H       1  <0>         0.0363
     35 H14       -24.3281   30.7862  -41.9750 H       1  <0>         0.0363
     36 H15       -28.6218   24.9230  -40.8925 H       1  <0>         0.0394
     37 H16       -30.2706   25.6239  -41.4232 H       1  <0>         0.0394
     38 H17       -22.0481   31.6004  -40.8978 H       1  <0>         0.1822
     39 H18       -22.0207   34.2595  -41.5681 H       1  <0>         0.2414
@<TRIPOS>BOND
     1     1    18    1
     2     2     3   ar
     3     2     4   ar
     4     3     5   ar
     5     4     6   ar
     6     5    12   ar
     7     6    12   ar
     8     7    13    1
     9     7    14    2
    10     8    13    2
    11     8    18    1
    12     9    10    1
    13     9    14    1
    14    10    15    1
    15    11    12    1
    16    11    16    1
    17    13    16    1
    18    14    18    1
    19    15    17   am
    20    15    20    2
    21    16    21    2
    22    17    19    1
    23     1    22    1
    24     1    23    1
    25     1    24    1
    26     2    25    1
    27     3    26    1
    28     4    27    1
    29     5    28    1
    30     6    29    1
    31     7    30    1
    32     8    31    1
    33     9    32    1
    34     9    33    1
    35    10    34    1
    36    10    35    1
    37    11    36    1
    38    11    37    1
    39    17    38    1
    40    19    39    1
@<TRIPOS>SUBSTRUCTURE
     1 <0>         1 TEMP              0 ****  ****    0 ROOT

