
##########                                Name:        AGE_500_3F07
##########                    Molecular_Weight:             286.331
##########                DOCK_Rotatable_Bonds:                   8
##########                       Formal_Charge:         0.000100002
##########                     HBond_Acceptors:                   5
##########                        HBond_Donors:                   2
##########                         Heavy_Atoms:                  21
##########                            HA_RMSDs:               2.908
##########                            HA_RMSDh:               2.823
##########                            HA_RMSDm:               2.475
##########                          Grid_Score:          -35.536083
##########                     Grid_vdw_energy:          -35.272854
##########                      Grid_es_energy:           -0.263229
##########           Internal_energy_repulsive:            3.899443

@<TRIPOS>MOLECULE
AGE_500_3F07
 39 40 1 0 0
SMALL
USER_CHARGES


@<TRIPOS>ATOM
      1 C1        -28.1030   27.1660  -42.6779 C.3     1  <0>         0.0050
      2 C2        -22.1912   31.3213  -43.0594 C.ar    1  <0>        -0.0617
      3 C3        -23.4084   30.9229  -43.7642 C.ar    1  <0>        -0.0615
      4 C4        -22.2979   32.0465  -41.7882 C.ar    1  <0>        -0.0615
      5 C5        -24.7264   31.2500  -43.2000 C.ar    1  <0>        -0.0582
      6 C6        -23.6124   32.3608  -41.2412 C.ar    1  <0>        -0.0582
      7 C7        -28.4123   29.3761  -39.7923 C.2     1  <0>        -0.0328
      8 C8        -27.7046   29.4915  -41.9769 C.2     1  <0>         0.0067
      9 C9        -29.1123   26.7982  -39.6979 C.3     1  <0>        -0.0060
     10 C10       -29.4668   26.4849  -38.3762 C.3     1  <0>         0.0311
     11 C11       -26.1544   32.4185  -41.1595 C.3     1  <0>         0.0357
     12 C12       -24.8675   31.9811  -41.9176 C.ar    1  <0>        -0.0399
     13 C13       -27.8662   30.2470  -40.8140 C.2     1  <0>         0.0331
     14 C14       -28.5846   28.0791  -40.3261 C.2     1  <0>         0.0113
     15 C15       -30.4064   25.3093  -38.0396 C.2     1  <0>         0.2358
     16 C16       -27.5141   31.7391  -40.7149 C.2     1  <0>         0.1687
     17 N1        -30.8179   25.2390  -36.7439 N.am    1  <0>        -0.1975
     18 N2        -28.1311   28.2402  -41.6627 N.pl3   1  <0>        -0.3121
     19 O1        -31.6221   24.2763  -36.3253 O.3     1  <0>        -0.2952
     20 O2        -30.7863   24.4648  -38.8366 O.2     1  <0>        -0.2737
     21 O3        -28.3935   32.4384  -40.2515 O.2     1  <0>        -0.2917
     22 H1        -28.4844   26.2334  -42.2364 H       1  <0>         0.0431
     23 H2        -28.7343   27.4523  -43.5320 H       1  <0>         0.0431
     24 H3        -27.0692   27.0129  -43.0211 H       1  <0>         0.0431
     25 H4        -21.2213   31.0838  -43.4709 H       1  <0>         0.0618
     26 H5        -23.3397   30.3880  -44.6998 H       1  <0>         0.0618
     27 H6        -21.4054   32.3466  -41.2593 H       1  <0>         0.0618
     28 H7        -25.6157   30.9496  -43.7341 H       1  <0>         0.0620
     29 H8        -23.6697   32.8930  -40.3032 H       1  <0>         0.0620
     30 H9        -28.6503   29.6720  -38.7812 H       1  <0>         0.0640
     31 H10       -27.3207   29.8307  -42.9277 H       1  <0>         0.0790
     32 H11       -28.3088   26.0772  -39.9092 H       1  <0>         0.0330
     33 H12       -30.0514   26.6304  -40.2456 H       1  <0>         0.0330
     34 H13       -28.5200   26.2607  -37.8631 H       1  <0>         0.0363
     35 H14       -29.9680   27.3828  -37.9855 H       1  <0>         0.0363
     36 H15       -25.7384   32.7229  -40.1878 H       1  <0>         0.0394
     37 H16       -26.5207   33.2283  -41.8077 H       1  <0>         0.0394
     38 H17       -30.5048   25.9313  -36.0938 H       1  <0>         0.1822
     39 H18       -31.3713   23.4547  -36.7310 H       1  <0>         0.2414
@<TRIPOS>BOND
     1     1    18    1
     2     2     3   ar
     3     2     4   ar
     4     3     5   ar
     5     4     6   ar
     6     5    12   ar
     7     6    12   ar
     8     7    13    1
     9     7    14    2
    10     8    13    2
    11     8    18    1
    12     9    10    1
    13     9    14    1
    14    10    15    1
    15    11    12    1
    16    11    16    1
    17    13    16    1
    18    14    18    1
    19    15    17   am
    20    15    20    2
    21    16    21    2
    22    17    19    1
    23     1    22    1
    24     1    23    1
    25     1    24    1
    26     2    25    1
    27     3    26    1
    28     4    27    1
    29     5    28    1
    30     6    29    1
    31     7    30    1
    32     8    31    1
    33     9    32    1
    34     9    33    1
    35    10    34    1
    36    10    35    1
    37    11    36    1
    38    11    37    1
    39    17    38    1
    40    19    39    1
@<TRIPOS>SUBSTRUCTURE
     1 <0>         1 TEMP              0 ****  ****    0 ROOT

