
##########                                Name:        AGE_500_3F07
##########                    Molecular_Weight:             286.331
##########                DOCK_Rotatable_Bonds:                   8
##########                       Formal_Charge:         0.000100002
##########                     HBond_Acceptors:                   5
##########                        HBond_Donors:                   2
##########                         Heavy_Atoms:                  21
##########                            HA_RMSDs:               8.610
##########                            HA_RMSDh:               7.564
##########                            HA_RMSDm:               6.985
##########                          Grid_Score:          -39.226387
##########                     Grid_vdw_energy:          -36.290085
##########                      Grid_es_energy:           -2.936302
##########           Internal_energy_repulsive:            3.798656

@<TRIPOS>MOLECULE
AGE_500_3F07
 39 40 1 0 0
SMALL
USER_CHARGES


@<TRIPOS>ATOM
      1 C1        -29.4090   31.5695  -40.0516 C.3     1  <0>         0.0050
      2 C2        -31.1163   24.9546  -37.3131 C.ar    1  <0>        -0.0617
      3 C3        -30.1847   26.0792  -37.2456 C.ar    1  <0>        -0.0615
      4 C4        -31.2477   24.2005  -38.5651 C.ar    1  <0>        -0.0615
      5 C5        -29.3893   26.4483  -38.4259 C.ar    1  <0>        -0.0582
      6 C6        -30.4498   24.5779  -39.7256 C.ar    1  <0>        -0.0582
      7 C7        -26.6773   29.4285  -41.1746 C.2     1  <0>        -0.0328
      8 C8        -28.9475   29.2838  -40.8395 C.2     1  <0>         0.0067
      9 C9        -26.2904   31.9687  -40.4382 C.3     1  <0>        -0.0060
     10 C10       -25.0957   32.4564  -40.9907 C.3     1  <0>         0.0311
     11 C11       -28.7553   25.9338  -41.0530 C.3     1  <0>         0.0357
     12 C12       -29.4990   25.7059  -39.7050 C.ar    1  <0>        -0.0399
     13 C13       -27.8311   28.5549  -41.2541 C.2     1  <0>         0.0331
     14 C14       -27.0833   30.6984  -40.7063 C.2     1  <0>         0.0113
     15 C15       -24.7363   33.9559  -40.9645 C.2     1  <0>         0.2358
     16 C16       -27.8954   27.0896  -41.7109 C.2     1  <0>         0.1687
     17 N1        -23.4124   34.2399  -40.8239 N.am    1  <0>        -0.1975
     18 N2        -28.4818   30.5223  -40.5303 N.pl3   1  <0>        -0.3121
     19 O1        -22.9735   35.4868  -40.7830 O.3     1  <0>        -0.2952
     20 O2        -25.5403   34.8714  -41.0544 O.2     1  <0>        -0.2737
     21 O3        -27.2113   26.8300  -42.6814 O.2     1  <0>        -0.2917
     22 H1        -28.8479   32.4951  -39.8556 H       1  <0>         0.0431
     23 H2        -30.1740   31.7601  -40.8187 H       1  <0>         0.0431
     24 H3        -29.8954   31.2324  -39.1244 H       1  <0>         0.0431
     25 H4        -31.7030   24.6810  -36.4486 H       1  <0>         0.0618
     26 H5        -30.0807   26.6393  -36.3281 H       1  <0>         0.0618
     27 H6        -31.9334   23.3684  -38.6267 H       1  <0>         0.0618
     28 H7        -28.7068   27.2827  -38.3596 H       1  <0>         0.0620
     29 H8        -30.5591   24.0088  -40.6369 H       1  <0>         0.0620
     30 H9        -25.6657   29.1521  -41.4328 H       1  <0>         0.0640
     31 H10       -29.9681   28.9359  -40.7774 H       1  <0>         0.0790
     32 H11       -26.0424   31.8771  -39.3704 H       1  <0>         0.0330
     33 H12       -27.0122   32.7604  -40.6876 H       1  <0>         0.0330
     34 H13       -24.2890   31.9511  -40.4394 H       1  <0>         0.0363
     35 H14       -25.1300   32.1810  -42.0551 H       1  <0>         0.0363
     36 H15       -28.0301   25.1067  -41.0409 H       1  <0>         0.0394
     37 H16       -29.5827   25.8455  -41.7724 H       1  <0>         0.0394
     38 H17       -22.7568   33.4886  -40.7499 H       1  <0>         0.1822
     39 H18       -22.9874   35.7987  -39.8858 H       1  <0>         0.2414
@<TRIPOS>BOND
     1     1    18    1
     2     2     3   ar
     3     2     4   ar
     4     3     5   ar
     5     4     6   ar
     6     5    12   ar
     7     6    12   ar
     8     7    13    1
     9     7    14    2
    10     8    13    2
    11     8    18    1
    12     9    10    1
    13     9    14    1
    14    10    15    1
    15    11    12    1
    16    11    16    1
    17    13    16    1
    18    14    18    1
    19    15    17   am
    20    15    20    2
    21    16    21    2
    22    17    19    1
    23     1    22    1
    24     1    23    1
    25     1    24    1
    26     2    25    1
    27     3    26    1
    28     4    27    1
    29     5    28    1
    30     6    29    1
    31     7    30    1
    32     8    31    1
    33     9    32    1
    34     9    33    1
    35    10    34    1
    36    10    35    1
    37    11    36    1
    38    11    37    1
    39    17    38    1
    40    19    39    1
@<TRIPOS>SUBSTRUCTURE
     1 <0>         1 TEMP              0 ****  ****    0 ROOT

