
##########                                Name:        AGE_500_3F07
##########                    Molecular_Weight:             286.331
##########                DOCK_Rotatable_Bonds:                   8
##########                       Formal_Charge:         0.000100002
##########                     HBond_Acceptors:                   5
##########                        HBond_Donors:                   2
##########                         Heavy_Atoms:                  21
##########                            HA_RMSDs:               8.995
##########                            HA_RMSDh:               7.921
##########                            HA_RMSDm:               6.969
##########                          Grid_Score:           72.286125
##########                     Grid_vdw_energy:           72.798134
##########                      Grid_es_energy:           -0.512009
##########           Internal_energy_repulsive:            2.300466

@<TRIPOS>MOLECULE
AGE_500_3F07
 39 40 1 0 0
SMALL
USER_CHARGES


@<TRIPOS>ATOM
      1 C1        -22.7337   32.9107  -41.0660 C.3     1  <0>         0.0050
      2 C2        -28.6836   28.2132  -43.1662 C.ar    1  <0>        -0.0617
      3 C3        -27.4632   29.0168  -43.2123 C.ar    1  <0>        -0.0615
      4 C4        -29.8309   28.6876  -42.3841 C.ar    1  <0>        -0.0615
      5 C5        -27.3909   30.2886  -42.4780 C.ar    1  <0>        -0.0582
      6 C6        -29.7437   29.9523  -41.6637 C.ar    1  <0>        -0.0582
      7 C7        -25.8834   34.5974  -41.8017 C.2     1  <0>        -0.0328
      8 C8        -25.1344   32.8355  -40.5283 C.2     1  <0>         0.0067
      9 C9        -23.5660   35.3611  -42.8929 C.3     1  <0>        -0.0060
     10 C10       -23.8006   36.5096  -43.6653 C.3     1  <0>         0.0311
     11 C11       -28.6575   32.1001  -40.8401 C.3     1  <0>         0.0357
     12 C12       -28.5331   30.7954  -41.6793 C.ar    1  <0>        -0.0399
     13 C13       -26.2799   33.5529  -40.8784 C.2     1  <0>         0.0331
     14 C14       -24.4900   34.5213  -42.0240 C.2     1  <0>         0.0113
     15 C15       -22.6727   37.2113  -44.4486 C.2     1  <0>         0.2358
     16 C16       -27.6800   33.2373  -40.3306 C.2     1  <0>         0.1687
     17 N1        -22.9900   38.4273  -44.9718 N.am    1  <0>        -0.1975
     18 N2        -24.1136   33.4219  -41.2071 N.pl3   1  <0>        -0.3121
     19 O1        -22.1127   39.1302  -45.6684 O.3     1  <0>        -0.2952
     20 O2        -21.5531   36.7556  -44.6252 O.2     1  <0>        -0.2737
     21 O3        -28.0365   33.9462  -39.4100 O.2     1  <0>        -0.2917
     22 H1        -22.0542   33.5113  -41.6887 H       1  <0>         0.0431
     23 H2        -22.4232   32.9797  -40.0130 H       1  <0>         0.0431
     24 H3        -22.6968   31.8606  -41.3913 H       1  <0>         0.0431
     25 H4        -28.7402   27.2780  -43.7035 H       1  <0>         0.0618
     26 H5        -26.6141   28.6761  -43.7862 H       1  <0>         0.0618
     27 H6        -30.7372   28.1018  -42.3421 H       1  <0>         0.0618
     28 H7        -26.4814   30.8695  -42.5213 H       1  <0>         0.0620
     29 H8        -30.5999   30.2853  -41.0958 H       1  <0>         0.0620
     30 H9        -26.5488   35.3206  -42.2497 H       1  <0>         0.0640
     31 H10       -25.0725   31.9910  -39.8580 H       1  <0>         0.0790
     32 H11       -23.2132   34.6356  -43.6408 H       1  <0>         0.0330
     33 H12       -22.8064   35.7044  -42.1752 H       1  <0>         0.0330
     34 H13       -24.5408   36.2091  -44.4215 H       1  <0>         0.0363
     35 H14       -24.1832   37.2638  -42.9619 H       1  <0>         0.0363
     36 H15       -29.3641   32.6817  -41.4504 H       1  <0>         0.0394
     37 H16       -29.0447   31.7074  -39.8884 H       1  <0>         0.0394
     38 H17       -23.9074   38.7975  -44.8261 H       1  <0>         0.1822
     39 H18       -21.2868   38.6621  -45.7027 H       1  <0>         0.2414
@<TRIPOS>BOND
     1     1    18    1
     2     2     3   ar
     3     2     4   ar
     4     3     5   ar
     5     4     6   ar
     6     5    12   ar
     7     6    12   ar
     8     7    13    1
     9     7    14    2
    10     8    13    2
    11     8    18    1
    12     9    10    1
    13     9    14    1
    14    10    15    1
    15    11    12    1
    16    11    16    1
    17    13    16    1
    18    14    18    1
    19    15    17   am
    20    15    20    2
    21    16    21    2
    22    17    19    1
    23     1    22    1
    24     1    23    1
    25     1    24    1
    26     2    25    1
    27     3    26    1
    28     4    27    1
    29     5    28    1
    30     6    29    1
    31     7    30    1
    32     8    31    1
    33     9    32    1
    34     9    33    1
    35    10    34    1
    36    10    35    1
    37    11    36    1
    38    11    37    1
    39    17    38    1
    40    19    39    1
@<TRIPOS>SUBSTRUCTURE
     1 <0>         1 TEMP              0 ****  ****    0 ROOT

