
##########                                Name:        AGE_500_3F07
##########                    Molecular_Weight:             286.331
##########                DOCK_Rotatable_Bonds:                   8
##########                       Formal_Charge:         0.000100002
##########                     HBond_Acceptors:                   5
##########                        HBond_Donors:                   2
##########                         Heavy_Atoms:                  21
##########                            HA_RMSDs:               3.886
##########                            HA_RMSDh:               3.777
##########                            HA_RMSDm:               3.090
##########                          Grid_Score:          -39.430088
##########                     Grid_vdw_energy:          -39.380623
##########                      Grid_es_energy:           -0.049465
##########           Internal_energy_repulsive:            3.263304

@<TRIPOS>MOLECULE
AGE_500_3F07
 39 40 1 0 0
SMALL
USER_CHARGES


@<TRIPOS>ATOM
      1 C1        -26.9939   26.6907  -43.0500 C.3     1  <0>         0.0050
      2 C2        -22.1482   31.6607  -41.3155 C.ar    1  <0>        -0.0617
      3 C3        -23.2720   31.9911  -42.1903 C.ar    1  <0>        -0.0615
      4 C4        -22.4093   31.2203  -39.9403 C.ar    1  <0>        -0.0615
      5 C5        -24.6506   31.8826  -41.6906 C.ar    1  <0>        -0.0582
      6 C6        -23.7824   31.1155  -39.4613 C.ar    1  <0>        -0.0582
      7 C7        -28.7688   28.0780  -40.1808 C.2     1  <0>        -0.0328
      8 C8        -27.1189   28.7122  -41.6515 C.2     1  <0>         0.0067
      9 C9        -29.2701   25.6266  -41.1210 C.3     1  <0>        -0.0060
     10 C10       -30.3440   25.0877  -40.3951 C.3     1  <0>         0.0311
     11 C11       -26.3188   31.2611  -39.5931 C.3     1  <0>         0.0357
     12 C12       -24.9473   31.4401  -40.3066 C.ar    1  <0>        -0.0399
     13 C13       -27.8584   29.1441  -40.5487 C.2     1  <0>         0.0331
     14 C14       -28.5875   26.9846  -41.0573 C.2     1  <0>         0.0113
     15 C15       -31.3866   24.1582  -41.0486 C.2     1  <0>         0.2358
     16 C16       -27.6877   30.5263  -39.9004 C.2     1  <0>         0.1687
     17 N1        -31.3809   22.8695  -40.6101 N.am    1  <0>        -0.1975
     18 N2        -27.5657   27.4580  -41.9232 N.pl3   1  <0>        -0.3121
     19 O1        -32.2225   21.9711  -41.0933 O.3     1  <0>        -0.2952
     20 O2        -32.1857   24.4958  -41.9089 O.2     1  <0>        -0.2737
     21 O3        -28.7286   31.0854  -39.6157 O.2     1  <0>        -0.2917
     22 H1        -27.4809   25.7061  -43.1084 H       1  <0>         0.0431
     23 H2        -27.1614   27.2387  -43.9890 H       1  <0>         0.0431
     24 H3        -25.9137   26.5564  -42.8914 H       1  <0>         0.0431
     25 H4        -21.1341   31.7402  -41.6785 H       1  <0>         0.0618
     26 H5        -23.0895   32.3152  -43.2042 H       1  <0>         0.0618
     27 H6        -21.5868   30.9745  -39.2850 H       1  <0>         0.0618
     28 H7        -25.4694   32.1319  -42.3493 H       1  <0>         0.0620
     29 H8        -23.9537   30.7871  -38.4468 H       1  <0>         0.0620
     30 H9        -29.4751   28.1138  -39.3646 H       1  <0>         0.0640
     31 H10       -26.3520   29.2604  -42.1785 H       1  <0>         0.0790
     32 H11       -28.4490   24.9329  -40.8873 H       1  <0>         0.0330
     33 H12       -29.6370   25.5897  -42.1573 H       1  <0>         0.0330
     34 H13       -29.8863   24.4954  -39.5891 H       1  <0>         0.0363
     35 H14       -30.9130   25.9536  -40.0255 H       1  <0>         0.0363
     36 H15       -26.0127   30.7640  -38.6607 H       1  <0>         0.0394
     37 H16       -26.6513   32.3056  -39.5016 H       1  <0>         0.0394
     38 H17       -30.7253   22.5959  -39.9063 H       1  <0>         0.1822
     39 H18       -32.2016   21.9955  -42.0428 H       1  <0>         0.2414
@<TRIPOS>BOND
     1     1    18    1
     2     2     3   ar
     3     2     4   ar
     4     3     5   ar
     5     4     6   ar
     6     5    12   ar
     7     6    12   ar
     8     7    13    1
     9     7    14    2
    10     8    13    2
    11     8    18    1
    12     9    10    1
    13     9    14    1
    14    10    15    1
    15    11    12    1
    16    11    16    1
    17    13    16    1
    18    14    18    1
    19    15    17   am
    20    15    20    2
    21    16    21    2
    22    17    19    1
    23     1    22    1
    24     1    23    1
    25     1    24    1
    26     2    25    1
    27     3    26    1
    28     4    27    1
    29     5    28    1
    30     6    29    1
    31     7    30    1
    32     8    31    1
    33     9    32    1
    34     9    33    1
    35    10    34    1
    36    10    35    1
    37    11    36    1
    38    11    37    1
    39    17    38    1
    40    19    39    1
@<TRIPOS>SUBSTRUCTURE
     1 <0>         1 TEMP              0 ****  ****    0 ROOT

