
##########                                Name:                 VIA
##########                    Molecular_Weight:             444.346
##########                DOCK_Rotatable_Bonds:                   7
##########                       Formal_Charge:                   0
##########                     HBond_Acceptors:                  11
##########                        HBond_Donors:                   0
##########                         Heavy_Atoms:                  33
##########                            HA_RMSDs:               8.605
##########                            HA_RMSDh:               6.665
##########                            HA_RMSDm:               5.497
##########                          Grid_Score:          -57.497330
##########                     Grid_vdw_energy:          -57.497330
##########                      Grid_es_energy:            0.000000
##########           Internal_energy_repulsive:            7.569174

@<TRIPOS>MOLECULE
VIA
 33 36 1 0 0
SMALL
NO_CHARGES


@<TRIPOS>ATOM
      1 C1         -0.2486   70.0228   80.3062 C.3     1  VIA777      0.0000
      2 C2          0.5397   69.8501   81.5765 C.3     1  VIA777      0.0000
      3 C3          1.9265   69.1668   81.3199 C.3     1  VIA777      0.0000
      4 C4          2.1838   68.4481   82.6049 C.2     1  VIA777      0.0000
      5 N1          2.9169   68.9649   83.6812 N.2     1  VIA777      0.0000
      6 N2          2.9420   68.0419   84.6865 N.pl3   1  VIA777      0.0000
      7 C5          3.6324   68.2727   85.9585 C.3     1  VIA777      0.0000
      8 C6          2.2320   66.9499   84.2557 C.2     1  VIA777      0.0000
      9 C7          1.9045   65.6836   84.8479 C.2     1  VIA777      0.0000
     10 O1          2.2560   65.3624   85.9598 O.2     1  VIA777      0.0000
     11 N3          1.1478   64.7785   84.1066 N.am    1  VIA777      0.0000
     12 C8          0.6796   65.0311   82.8096 C.2     1  VIA777      0.0000
     13 N4          0.9700   66.2534   82.1923 N.2     1  VIA777      0.0000
     14 C9          1.7445   67.1883   82.9361 C.2     1  VIA777      0.0000
     15 C10        -0.0758   64.0036   82.1814 C.ar    1  VIA777      0.0000
     16 C11        -0.0334   63.9876   80.7334 C.ar    1  VIA777      0.0000
     17 C12        -0.7554   62.9737   79.9678 C.ar    1  VIA777      0.0000
     18 C13        -1.5425   61.9586   80.7378 C.ar    1  VIA777      0.0000
     19 C14        -1.5975   61.9572   82.1959 C.ar    1  VIA777      0.0000
     20 C15        -0.8575   62.9806   82.9591 C.ar    1  VIA777      0.0000
     21 O2         -0.8309   63.0480   84.4046 O.3     1  VIA777      0.0000
     22 C16        -1.9749   62.8663   85.2628 C.3     1  VIA777      0.0000
     23 C17        -1.3943   62.4966   86.6176 C.3     1  VIA777      0.0000
     24 S1         -0.6923   62.9326   78.3685 S.o2    1  VIA777      0.0000
     25 O3         -1.2740   63.9354   77.7370 O.2     1  VIA777      0.0000
     26 O4          0.5617   62.9681   77.9832 O.2     1  VIA777      0.0000
     27 N5         -1.3819   61.5275   78.0875 N.pl3   1  VIA777      0.0000
     28 C18        -0.4385   60.4384   77.4416 C.2     1  VIA777      0.0000
     29 C19        -0.2518   60.4812   75.9126 C.2     1  VIA777      0.0000
     30 N6         -1.4650   60.8479   75.1065 N.pl3   1  VIA777      0.0000
     31 C20        -1.8665   59.6571   74.2948 C.3     1  VIA777      0.0000
     32 C21        -2.6965   61.4086   75.8218 C.2     1  VIA777      0.0000
     33 C22        -2.7241   61.3786   77.3971 C.2     1  VIA777      0.0000
@<TRIPOS>BOND
     1     1     2    1
     2    24    25    2
     3    30    32    1
     4    32    33    2
     5    30    31    1
     6    29    30    1
     7    27    33    1
     8    24    26    2
     9    24    27    1
    10    17    24    1
    11     2     3    1
    12     3     4    1
    13    27    28    1
    14    28    29    2
    15    16    17   ar
    16    17    18   ar
    17    15    16   ar
    18    18    19   ar
    19     4    14    1
    20     4     5    2
    21    13    14    1
    22    12    13    2
    23     8    14    2
    24    12    15    1
    25    15    20   ar
    26    19    20   ar
    27     5     6    1
    28    11    12    1
    29    20    21    1
    30     6     8    1
    31     8     9    1
    32     6     7    1
    33    21    22    1
    34     9    11   am
    35    22    23    1
    36     9    10    2
@<TRIPOS>SUBSTRUCTURE
     1 VIA777        1 TEMP              0 ****  ****    0 ROOT

