
##########                                Name:                 VIA
##########                    Molecular_Weight:             444.346
##########                DOCK_Rotatable_Bonds:                   7
##########                       Formal_Charge:                   0
##########                     HBond_Acceptors:                  11
##########                        HBond_Donors:                   0
##########                         Heavy_Atoms:                  33
##########                            HA_RMSDs:               0.805
##########                            HA_RMSDh:               0.805
##########                            HA_RMSDm:               0.770
##########                          Grid_Score:          -56.731693
##########                     Grid_vdw_energy:          -56.731693
##########                      Grid_es_energy:            0.000000
##########           Internal_energy_repulsive:            3.543279

@<TRIPOS>MOLECULE
VIA
 33 36 1 0 0
SMALL
NO_CHARGES


@<TRIPOS>ATOM
      1 C1          0.3479   61.6700   81.0006 C.3     1  VIA777      0.0000
      2 C2          0.4321   62.2739   82.3765 C.3     1  VIA777      0.0000
      3 C3         -0.8546   63.0914   82.7400 C.3     1  VIA777      0.0000
      4 C4         -0.6539   63.3967   84.1893 C.2     1  VIA777      0.0000
      5 N1         -1.3049   62.7448   85.2449 N.2     1  VIA777      0.0000
      6 N2         -0.8752   63.2741   86.4274 N.pl3   1  VIA777      0.0000
      7 C5         -1.3662   62.8119   87.7285 C.3     1  VIA777      0.0000
      8 C6          0.0400   64.2514   86.1283 C.2     1  VIA777      0.0000
      9 C7          0.8297   65.1476   86.9251 C.2     1  VIA777      0.0000
     10 O1          0.7928   65.1655   88.1340 O.2     1  VIA777      0.0000
     11 N3          1.6779   66.0426   86.2765 N.am    1  VIA777      0.0000
     12 C8          1.8119   66.1203   84.8831 C.2     1  VIA777      0.0000
     13 N4          1.0658   65.2641   84.0649 N.2     1  VIA777      0.0000
     14 C9          0.1924   64.3450   84.7127 C.2     1  VIA777      0.0000
     15 C10         2.7155   67.0915   84.3720 C.ar    1  VIA777      0.0000
     16 C11         2.1552   68.0361   83.4272 C.ar    1  VIA777      0.0000
     17 C12         2.9754   69.0930   82.8393 C.ar    1  VIA777      0.0000
     18 C13         4.4149   69.1567   83.2474 C.ar    1  VIA777      0.0000
     19 C14         4.9981   68.2154   84.1976 C.ar    1  VIA777      0.0000
     20 C15         4.1584   67.1574   84.7917 C.ar    1  VIA777      0.0000
     21 O2          4.6379   66.1933   85.7589 O.3     1  VIA777      0.0000
     22 C16         5.8928   66.2815   86.4630 C.3     1  VIA777      0.0000
     23 C17         5.8288   65.1887   87.5171 C.3     1  VIA777      0.0000
     24 S1          2.3577   70.1573   81.8149 S.o2    1  VIA777      0.0000
     25 O3          2.7059   70.0170   80.5493 O.2     1  VIA777      0.0000
     26 O4          1.0493   70.0569   81.8220 O.2     1  VIA777      0.0000
     27 N5          2.8732   71.5153   82.4623 N.pl3   1  VIA777      0.0000
     28 C18         1.7743   72.3461   83.2339 C.2     1  VIA777      0.0000
     29 C19         0.8663   73.2673   82.3966 C.2     1  VIA777      0.0000
     30 N6          1.5206   73.9725   81.2429 N.pl3   1  VIA777      0.0000
     31 C20         1.5188   75.4410   81.5287 C.3     1  VIA777      0.0000
     32 C21         2.9236   73.5461   80.8045 C.2     1  VIA777      0.0000
     33 C22         3.7147   72.5311   81.7140 C.2     1  VIA777      0.0000
@<TRIPOS>BOND
     1     1     2    1
     2    24    25    2
     3    30    32    1
     4    32    33    2
     5    30    31    1
     6    29    30    1
     7    27    33    1
     8    24    26    2
     9    24    27    1
    10    17    24    1
    11     2     3    1
    12     3     4    1
    13    27    28    1
    14    28    29    2
    15    16    17   ar
    16    17    18   ar
    17    15    16   ar
    18    18    19   ar
    19     4    14    1
    20     4     5    2
    21    13    14    1
    22    12    13    2
    23     8    14    2
    24    12    15    1
    25    15    20   ar
    26    19    20   ar
    27     5     6    1
    28    11    12    1
    29    20    21    1
    30     6     8    1
    31     8     9    1
    32     6     7    1
    33    21    22    1
    34     9    11   am
    35    22    23    1
    36     9    10    2
@<TRIPOS>SUBSTRUCTURE
     1 VIA777        1 TEMP              0 ****  ****    0 ROOT

