
##########                                Name:                 VIA
##########                    Molecular_Weight:             444.346
##########                DOCK_Rotatable_Bonds:                   7
##########                       Formal_Charge:                   0
##########                     HBond_Acceptors:                  11
##########                        HBond_Donors:                   0
##########                         Heavy_Atoms:                  33
##########                            HA_RMSDs:               0.679
##########                            HA_RMSDh:               0.679
##########                            HA_RMSDm:               0.659
##########                          Grid_Score:          -57.934582
##########                     Grid_vdw_energy:          -57.934582
##########                      Grid_es_energy:            0.000000
##########           Internal_energy_repulsive:            4.028783

@<TRIPOS>MOLECULE
VIA
 33 36 1 0 0
SMALL
NO_CHARGES


@<TRIPOS>ATOM
      1 C1         -0.1690   61.5514   81.0108 C.3     1  VIA777      0.0000
      2 C2          0.0485   62.1548   82.3722 C.3     1  VIA777      0.0000
      3 C3         -1.1766   63.0144   82.8373 C.3     1  VIA777      0.0000
      4 C4         -0.8757   63.2655   84.2796 C.2     1  VIA777      0.0000
      5 N1         -1.4721   62.5916   85.3535 N.2     1  VIA777      0.0000
      6 N2         -0.9548   63.0709   86.5222 N.pl3   1  VIA777      0.0000
      7 C5         -1.3712   62.5748   87.8367 C.3     1  VIA777      0.0000
      8 C6         -0.0385   64.0386   86.1962 C.2     1  VIA777      0.0000
      9 C7          0.8215   64.8903   86.9687 C.2     1  VIA777      0.0000
     10 O1          0.8631   64.8675   88.1774 O.2     1  VIA777      0.0000
     11 N3          1.6465   65.7890   86.2958 N.am    1  VIA777      0.0000
     12 C8          1.6919   65.9117   84.9000 C.2     1  VIA777      0.0000
     13 N4          0.8750   65.0997   84.1045 N.2     1  VIA777      0.0000
     14 C9          0.0243   64.1775   84.7775 C.2     1  VIA777      0.0000
     15 C10         2.5829   66.8807   84.3630 C.ar    1  VIA777      0.0000
     16 C11         2.0159   67.7784   83.3774 C.ar    1  VIA777      0.0000
     17 C12         2.8226   68.8285   82.7596 C.ar    1  VIA777      0.0000
     18 C13         4.2557   68.9355   83.1812 C.ar    1  VIA777      0.0000
     19 C14         4.8454   68.0418   84.1725 C.ar    1  VIA777      0.0000
     20 C15         4.0191   66.9904   84.7962 C.ar    1  VIA777      0.0000
     21 O2          4.5053   66.0724   85.8041 O.3     1  VIA777      0.0000
     22 C16         5.8547   66.0384   86.3105 C.3     1  VIA777      0.0000
     23 C17         5.8252   65.0194   87.4374 C.3     1  VIA777      0.0000
     24 S1          2.1970   69.8418   81.6894 S.o2    1  VIA777      0.0000
     25 O3          2.5610   69.6599   80.4335 O.2     1  VIA777      0.0000
     26 O4          0.8906   69.7179   81.6874 O.2     1  VIA777      0.0000
     27 N5          2.6814   71.2325   82.2896 N.pl3   1  VIA777      0.0000
     28 C18         1.5813   72.0329   83.0909 C.2     1  VIA777      0.0000
     29 C19         0.6021   72.8992   82.2754 C.2     1  VIA777      0.0000
     30 N6          1.1785   73.6071   81.0826 N.pl3   1  VIA777      0.0000
     31 C20         1.1271   75.0798   81.3411 C.3     1  VIA777      0.0000
     32 C21         2.5790   73.2299   80.5938 C.2     1  VIA777      0.0000
     33 C22         3.4484   72.2667   81.4881 C.2     1  VIA777      0.0000
@<TRIPOS>BOND
     1     1     2    1
     2    24    25    2
     3    30    32    1
     4    32    33    2
     5    30    31    1
     6    29    30    1
     7    27    33    1
     8    24    26    2
     9    24    27    1
    10    17    24    1
    11     2     3    1
    12     3     4    1
    13    27    28    1
    14    28    29    2
    15    16    17   ar
    16    17    18   ar
    17    15    16   ar
    18    18    19   ar
    19     4    14    1
    20     4     5    2
    21    13    14    1
    22    12    13    2
    23     8    14    2
    24    12    15    1
    25    15    20   ar
    26    19    20   ar
    27     5     6    1
    28    11    12    1
    29    20    21    1
    30     6     8    1
    31     8     9    1
    32     6     7    1
    33    21    22    1
    34     9    11   am
    35    22    23    1
    36     9    10    2
@<TRIPOS>SUBSTRUCTURE
     1 VIA777        1 TEMP              0 ****  ****    0 ROOT

