
##########                                Name:                 VIA
##########                    Molecular_Weight:             444.346
##########                DOCK_Rotatable_Bonds:                   7
##########                       Formal_Charge:                   0
##########                     HBond_Acceptors:                  11
##########                        HBond_Donors:                   0
##########                         Heavy_Atoms:                  33
##########                            HA_RMSDs:               0.378
##########                            HA_RMSDh:               0.378
##########                            HA_RMSDm:               0.378
##########                          Grid_Score:          -55.276211
##########                     Grid_vdw_energy:          -55.276211
##########                      Grid_es_energy:            0.000000
##########           Internal_energy_repulsive:            3.507213

@<TRIPOS>MOLECULE
VIA
 33 36 1 0 0
SMALL
NO_CHARGES


@<TRIPOS>ATOM
      1 C1         -0.4004   61.3331   79.8496 C.3     1  VIA777      0.0000
      2 C2         -0.2717   61.7200   81.2983 C.3     1  VIA777      0.0000
      3 C3         -1.1029   63.0037   81.6404 C.3     1  VIA777      0.0000
      4 C4         -0.9322   63.1234   83.1205 C.2     1  VIA777      0.0000
      5 N1         -1.5673   62.3125   84.0703 N.2     1  VIA777      0.0000
      6 N2         -1.1741   62.6984   85.3191 N.pl3   1  VIA777      0.0000
      7 C5         -1.6602   62.0496   86.5399 C.3     1  VIA777      0.0000
      8 C6         -0.2975   63.7427   85.1663 C.2     1  VIA777      0.0000
      9 C7          0.4443   64.5574   86.0871 C.2     1  VIA777      0.0000
     10 O1          0.3926   64.4144   87.2870 O.2     1  VIA777      0.0000
     11 N3          1.2614   65.5634   85.5758 N.am    1  VIA777      0.0000
     12 C8          1.4082   65.8292   84.2072 C.2     1  VIA777      0.0000
     13 N4          0.7085   65.0588   83.2712 N.2     1  VIA777      0.0000
     14 C9         -0.1328   64.0280   83.7780 C.2     1  VIA777      0.0000
     15 C10         2.2759   66.8949   83.8432 C.ar    1  VIA777      0.0000
     16 C11         1.7031   67.9037   82.9753 C.ar    1  VIA777      0.0000
     17 C12         2.4860   69.0582   82.5399 C.ar    1  VIA777      0.0000
     18 C13         3.9010   69.1533   83.0211 C.ar    1  VIA777      0.0000
     19 C14         4.4961   68.1485   83.8959 C.ar    1  VIA777      0.0000
     20 C15         3.6936   66.9912   84.3363 C.ar    1  VIA777      0.0000
     21 O2          4.1858   65.9564   85.2206 O.3     1  VIA777      0.0000
     22 C16         5.5289   65.8810   85.7392 C.3     1  VIA777      0.0000
     23 C17         5.4287   64.9784   86.9576 C.3     1  VIA777      0.0000
     24 S1          1.8527   70.1914   81.6027 S.o2    1  VIA777      0.0000
     25 O3          1.9697   70.0029   80.3013 O.2     1  VIA777      0.0000
     26 O4          0.5608   70.2633   81.8222 O.2     1  VIA777      0.0000
     27 N5          2.6371   71.4718   82.1260 N.pl3   1  VIA777      0.0000
     28 C18         1.7767   72.4742   82.9910 C.2     1  VIA777      0.0000
     29 C19         0.9129   73.5010   82.2334 C.2     1  VIA777      0.0000
     30 N6          1.5108   74.0746   80.9806 N.pl3   1  VIA777      0.0000
     31 C20         1.7578   75.5331   81.2038 C.3     1  VIA777      0.0000
     32 C21         2.7703   73.4344   80.3921 C.2     1  VIA777      0.0000
     33 C22         3.5151   72.3340   81.2393 C.2     1  VIA777      0.0000
@<TRIPOS>BOND
     1     1     2    1
     2    24    25    2
     3    30    32    1
     4    32    33    2
     5    30    31    1
     6    29    30    1
     7    27    33    1
     8    24    26    2
     9    24    27    1
    10    17    24    1
    11     2     3    1
    12     3     4    1
    13    27    28    1
    14    28    29    2
    15    16    17   ar
    16    17    18   ar
    17    15    16   ar
    18    18    19   ar
    19     4    14    1
    20     4     5    2
    21    13    14    1
    22    12    13    2
    23     8    14    2
    24    12    15    1
    25    15    20   ar
    26    19    20   ar
    27     5     6    1
    28    11    12    1
    29    20    21    1
    30     6     8    1
    31     8     9    1
    32     6     7    1
    33    21    22    1
    34     9    11   am
    35    22    23    1
    36     9    10    2
@<TRIPOS>SUBSTRUCTURE
     1 VIA777        1 TEMP              0 ****  ****    0 ROOT

