
##########                                Name:                 VIA
##########                    Molecular_Weight:             444.346
##########                DOCK_Rotatable_Bonds:                   7
##########                       Formal_Charge:                   0
##########                     HBond_Acceptors:                  11
##########                        HBond_Donors:                   0
##########                         Heavy_Atoms:                  33
##########                            HA_RMSDs:               0.288
##########                            HA_RMSDh:               0.288
##########                            HA_RMSDm:               0.288
##########                          Grid_Score:          -56.348320
##########                     Grid_vdw_energy:          -56.348320
##########                      Grid_es_energy:            0.000000
##########           Internal_energy_repulsive:            3.697645

@<TRIPOS>MOLECULE
VIA
 33 36 1 0 0
SMALL
NO_CHARGES


@<TRIPOS>ATOM
      1 C1         -0.1300   61.4502   80.1236 C.3     1  VIA777      0.0000
      2 C2         -0.3501   61.6065   81.6042 C.3     1  VIA777      0.0000
      3 C3         -1.4118   62.7129   81.9275 C.3     1  VIA777      0.0000
      4 C4         -1.2491   62.9068   83.4006 C.2     1  VIA777      0.0000
      5 N1         -1.9166   62.1681   84.3864 N.2     1  VIA777      0.0000
      6 N2         -1.5214   62.6085   85.6164 N.pl3   1  VIA777      0.0000
      7 C5         -2.0370   62.0415   86.8656 C.3     1  VIA777      0.0000
      8 C6         -0.6116   63.6157   85.4163 C.2     1  VIA777      0.0000
      9 C7          0.1478   64.4557   86.2990 C.2     1  VIA777      0.0000
     10 O1          0.0823   64.3792   87.5044 O.2     1  VIA777      0.0000
     11 N3          0.9999   65.4072   85.7424 N.am    1  VIA777      0.0000
     12 C8          1.1656   65.5943   84.3630 C.2     1  VIA777      0.0000
     13 N4          0.4496   64.7963   83.4630 N.2     1  VIA777      0.0000
     14 C9         -0.4273   63.8206   84.0163 C.2     1  VIA777      0.0000
     15 C10         2.0688   66.6118   83.9507 C.ar    1  VIA777      0.0000
     16 C11         1.5480   67.5638   82.9909 C.ar    1  VIA777      0.0000
     17 C12         2.3708   68.6662   82.4978 C.ar    1  VIA777      0.0000
     18 C13         3.7711   68.7685   83.0190 C.ar    1  VIA777      0.0000
     19 C14         4.3141   67.8205   83.9862 C.ar    1  VIA777      0.0000
     20 C15         3.4714   66.7161   84.4838 C.ar    1  VIA777      0.0000
     21 O2          3.9107   65.7411   85.4591 O.3     1  VIA777      0.0000
     22 C16         5.2086   65.7248   86.0863 C.3     1  VIA777      0.0000
     23 C17         5.0731   64.7487   87.2431 C.3     1  VIA777      0.0000
     24 S1          1.7946   69.7382   81.4575 S.o2    1  VIA777      0.0000
     25 O3          2.1687   69.5887   80.2004 O.2     1  VIA777      0.0000
     26 O4          0.4848   69.6600   81.4354 O.2     1  VIA777      0.0000
     27 N5          2.3184   71.0888   82.1134 N.pl3   1  VIA777      0.0000
     28 C18         1.2281   71.9140   82.9031 C.2     1  VIA777      0.0000
     29 C19         0.3142   72.8449   82.0831 C.2     1  VIA777      0.0000
     30 N6          0.9591   73.5602   80.9305 N.pl3   1  VIA777      0.0000
     31 C20         0.9626   75.0258   81.2305 C.3     1  VIA777      0.0000
     32 C21         2.3573   73.1357   80.4750 C.2     1  VIA777      0.0000
     33 C22         3.1549   72.1105   81.3673 C.2     1  VIA777      0.0000
@<TRIPOS>BOND
     1     1     2    1
     2    24    25    2
     3    30    32    1
     4    32    33    2
     5    30    31    1
     6    29    30    1
     7    27    33    1
     8    24    26    2
     9    24    27    1
    10    17    24    1
    11     2     3    1
    12     3     4    1
    13    27    28    1
    14    28    29    2
    15    16    17   ar
    16    17    18   ar
    17    15    16   ar
    18    18    19   ar
    19     4    14    1
    20     4     5    2
    21    13    14    1
    22    12    13    2
    23     8    14    2
    24    12    15    1
    25    15    20   ar
    26    19    20   ar
    27     5     6    1
    28    11    12    1
    29    20    21    1
    30     6     8    1
    31     8     9    1
    32     6     7    1
    33    21    22    1
    34     9    11   am
    35    22    23    1
    36     9    10    2
@<TRIPOS>SUBSTRUCTURE
     1 VIA777        1 TEMP              0 ****  ****    0 ROOT

