
##########                                Name:                 VIA
##########                    Molecular_Weight:             444.346
##########                DOCK_Rotatable_Bonds:                   7
##########                       Formal_Charge:                   0
##########                     HBond_Acceptors:                  11
##########                        HBond_Donors:                   0
##########                         Heavy_Atoms:                  33
##########                            HA_RMSDs:               0.621
##########                            HA_RMSDh:               0.621
##########                            HA_RMSDm:               0.613
##########                          Grid_Score:          -57.281109
##########                     Grid_vdw_energy:          -57.281109
##########                      Grid_es_energy:            0.000000
##########           Internal_energy_repulsive:            3.990359

@<TRIPOS>MOLECULE
VIA
 33 36 1 0 0
SMALL
NO_CHARGES


@<TRIPOS>ATOM
      1 C1         -0.2520   61.8921   80.7229 C.3     1  VIA777      0.0000
      2 C2         -0.3377   62.0651   82.2154 C.3     1  VIA777      0.0000
      3 C3         -1.2561   63.2700   82.6162 C.3     1  VIA777      0.0000
      4 C4         -0.9367   63.4621   84.0636 C.2     1  VIA777      0.0000
      5 N1         -1.5327   62.7576   85.1179 N.2     1  VIA777      0.0000
      6 N2         -0.9960   63.1846   86.2980 N.pl3   1  VIA777      0.0000
      7 C5         -1.4069   62.6459   87.5975 C.3     1  VIA777      0.0000
      8 C6         -0.0678   64.1495   85.9987 C.2     1  VIA777      0.0000
      9 C7          0.8134   64.9581   86.7932 C.2     1  VIA777      0.0000
     10 O1          0.8670   64.8892   87.9996 O.2     1  VIA777      0.0000
     11 N3          1.6457   65.8686   86.1455 N.am    1  VIA777      0.0000
     12 C8          1.6789   66.0429   84.7549 C.2     1  VIA777      0.0000
     13 N4          0.8411   65.2743   83.9384 N.2     1  VIA777      0.0000
     14 C9         -0.0173   64.3406   84.5855 C.2     1  VIA777      0.0000
     15 C10         2.5796   67.0175   84.2450 C.ar    1  VIA777      0.0000
     16 C11         2.0239   67.9427   83.2785 C.ar    1  VIA777      0.0000
     17 C12         2.8415   69.0010   82.6894 C.ar    1  VIA777      0.0000
     18 C13         4.2734   69.0868   83.1197 C.ar    1  VIA777      0.0000
     19 C14         4.8517   68.1653   84.0920 C.ar    1  VIA777      0.0000
     20 C15         4.0146   67.1058   84.6870 C.ar    1  VIA777      0.0000
     21 O2          4.4893   66.1605   85.6749 O.3     1  VIA777      0.0000
     22 C16         5.7579   66.2412   86.3550 C.3     1  VIA777      0.0000
     23 C17         5.7076   65.1487   87.4101 C.3     1  VIA777      0.0000
     24 S1          2.2285   70.0441   81.6408 S.o2    1  VIA777      0.0000
     25 O3          2.5645   69.8644   80.3768 O.2     1  VIA777      0.0000
     26 O4          0.9190   69.9601   81.6610 O.2     1  VIA777      0.0000
     27 N5          2.7658   71.4129   82.2461 N.pl3   1  VIA777      0.0000
     28 C18         1.7088   72.2317   83.0861 C.2     1  VIA777      0.0000
     29 C19         0.7330   73.1350   82.3075 C.2     1  VIA777      0.0000
     30 N6          1.2977   73.8434   81.1094 N.pl3   1  VIA777      0.0000
     31 C20         1.2931   75.3132   81.3882 C.3     1  VIA777      0.0000
     32 C21         2.6744   73.4353   80.5796 C.2     1  VIA777      0.0000
     33 C22         3.5399   72.4370   81.4384 C.2     1  VIA777      0.0000
@<TRIPOS>BOND
     1     1     2    1
     2    24    25    2
     3    30    32    1
     4    32    33    2
     5    30    31    1
     6    29    30    1
     7    27    33    1
     8    24    26    2
     9    24    27    1
    10    17    24    1
    11     2     3    1
    12     3     4    1
    13    27    28    1
    14    28    29    2
    15    16    17   ar
    16    17    18   ar
    17    15    16   ar
    18    18    19   ar
    19     4    14    1
    20     4     5    2
    21    13    14    1
    22    12    13    2
    23     8    14    2
    24    12    15    1
    25    15    20   ar
    26    19    20   ar
    27     5     6    1
    28    11    12    1
    29    20    21    1
    30     6     8    1
    31     8     9    1
    32     6     7    1
    33    21    22    1
    34     9    11   am
    35    22    23    1
    36     9    10    2
@<TRIPOS>SUBSTRUCTURE
     1 VIA777        1 TEMP              0 ****  ****    0 ROOT

