
##########                                Name:                 VIA
##########                    Molecular_Weight:             444.346
##########                DOCK_Rotatable_Bonds:                   7
##########                       Formal_Charge:                   0
##########                     HBond_Acceptors:                  11
##########                        HBond_Donors:                   0
##########                         Heavy_Atoms:                  33
##########                            HA_RMSDs:               0.384
##########                            HA_RMSDh:               0.384
##########                            HA_RMSDm:               0.384
##########                          Grid_Score:          -57.328182
##########                     Grid_vdw_energy:          -57.328182
##########                      Grid_es_energy:            0.000000
##########           Internal_energy_repulsive:            4.358841

@<TRIPOS>MOLECULE
VIA
 33 36 1 0 0
SMALL
NO_CHARGES


@<TRIPOS>ATOM
      1 C1         -0.2565   61.4833   80.3342 C.3     1  VIA777      0.0000
      2 C2         -0.2517   61.7359   81.8178 C.3     1  VIA777      0.0000
      3 C3         -1.2483   62.8752   82.2238 C.3     1  VIA777      0.0000
      4 C4         -1.0014   63.0234   83.6904 C.2     1  VIA777      0.0000
      5 N1         -1.6097   62.2518   84.6892 N.2     1  VIA777      0.0000
      6 N2         -1.1451   62.6547   85.9077 N.pl3   1  VIA777      0.0000
      7 C5         -1.5870   62.0470   87.1660 C.3     1  VIA777      0.0000
      8 C6         -0.2500   63.6709   85.6875 C.2     1  VIA777      0.0000
      9 C7          0.5576   64.4854   86.5511 C.2     1  VIA777      0.0000
     10 O1          0.5617   64.3710   87.7553 O.2     1  VIA777      0.0000
     11 N3          1.3745   65.4569   85.9768 N.am    1  VIA777      0.0000
     12 C8          1.4602   65.6878   84.5966 C.2     1  VIA777      0.0000
     13 N4          0.6950   64.9160   83.7146 N.2     1  VIA777      0.0000
     14 C9         -0.1469   63.9203   84.2863 C.2     1  VIA777      0.0000
     15 C10         2.3365   66.7209   84.1653 C.ar    1  VIA777      0.0000
     16 C11         1.7851   67.6518   83.2019 C.ar    1  VIA777      0.0000
     17 C12         2.5782   68.7672   82.6900 C.ar    1  VIA777      0.0000
     18 C13         3.9811   68.9054   83.1957 C.ar    1  VIA777      0.0000
     19 C14         4.5547   67.9790   84.1661 C.ar    1  VIA777      0.0000
     20 C15         3.7418   66.8613   84.6829 C.ar    1  VIA777      0.0000
     21 O2          4.2123   65.9057   85.6629 O.3     1  VIA777      0.0000
     22 C16         5.4291   66.0335   86.4254 C.3     1  VIA777      0.0000
     23 C17         5.3559   64.9308   87.4686 C.3     1  VIA777      0.0000
     24 S1          1.9679   69.8161   81.6455 S.o2    1  VIA777      0.0000
     25 O3          1.9316   69.4277   80.3843 O.2     1  VIA777      0.0000
     26 O4          0.7190   70.0658   81.9617 O.2     1  VIA777      0.0000
     27 N5          2.9252   71.0615   81.8929 N.pl3   1  VIA777      0.0000
     28 C18         2.5090   71.9944   83.0969 C.2     1  VIA777      0.0000
     29 C19         1.4364   73.0664   82.8234 C.2     1  VIA777      0.0000
     30 N6          1.4916   73.7312   81.4777 N.pl3   1  VIA777      0.0000
     31 C20         1.8403   75.1719   81.6800 C.3     1  VIA777      0.0000
     32 C21         2.3926   73.1427   80.3893 C.2     1  VIA777      0.0000
     33 C22         3.3907   71.9901   80.7877 C.2     1  VIA777      0.0000
@<TRIPOS>BOND
     1     1     2    1
     2    24    25    2
     3    30    32    1
     4    32    33    2
     5    30    31    1
     6    29    30    1
     7    27    33    1
     8    24    26    2
     9    24    27    1
    10    17    24    1
    11     2     3    1
    12     3     4    1
    13    27    28    1
    14    28    29    2
    15    16    17   ar
    16    17    18   ar
    17    15    16   ar
    18    18    19   ar
    19     4    14    1
    20     4     5    2
    21    13    14    1
    22    12    13    2
    23     8    14    2
    24    12    15    1
    25    15    20   ar
    26    19    20   ar
    27     5     6    1
    28    11    12    1
    29    20    21    1
    30     6     8    1
    31     8     9    1
    32     6     7    1
    33    21    22    1
    34     9    11   am
    35    22    23    1
    36     9    10    2
@<TRIPOS>SUBSTRUCTURE
     1 VIA777        1 TEMP              0 ****  ****    0 ROOT

