
##########                                Name:                 VIA
##########                    Molecular_Weight:             444.346
##########                DOCK_Rotatable_Bonds:                   7
##########                       Formal_Charge:                   0
##########                     HBond_Acceptors:                  11
##########                        HBond_Donors:                   0
##########                         Heavy_Atoms:                  33
##########                            HA_RMSDs:               0.567
##########                            HA_RMSDh:               0.567
##########                            HA_RMSDm:               0.541
##########                          Grid_Score:          -57.772381
##########                     Grid_vdw_energy:          -57.772381
##########                      Grid_es_energy:            0.000000
##########           Internal_energy_repulsive:            4.367131

@<TRIPOS>MOLECULE
VIA
 33 36 1 0 0
SMALL
NO_CHARGES


@<TRIPOS>ATOM
      1 C1          0.3109   61.6264   80.4304 C.3     1  VIA777      0.0000
      2 C2          0.0499   61.6580   81.9122 C.3     1  VIA777      0.0000
      3 C3         -1.1371   62.6127   82.2802 C.3     1  VIA777      0.0000
      4 C4         -0.9539   62.8168   83.7495 C.2     1  VIA777      0.0000
      5 N1         -1.5680   62.0511   84.7494 N.2     1  VIA777      0.0000
      6 N2         -1.1684   62.5112   85.9707 N.pl3   1  VIA777      0.0000
      7 C5         -1.6333   61.9244   87.2306 C.3     1  VIA777      0.0000
      8 C6         -0.3087   63.5576   85.7512 C.2     1  VIA777      0.0000
      9 C7          0.4299   64.4325   86.6176 C.2     1  VIA777      0.0000
     10 O1          0.3919   64.3557   87.8241 O.2     1  VIA777      0.0000
     11 N3          1.2273   65.4200   86.0430 N.am    1  VIA777      0.0000
     12 C8          1.3570   65.6114   84.6602 C.2     1  VIA777      0.0000
     13 N4          0.6596   64.7804   83.7757 N.2     1  VIA777      0.0000
     14 C9         -0.1616   63.7676   84.3475 C.2     1  VIA777      0.0000
     15 C10         2.2055   66.6673   84.2288 C.ar    1  VIA777      0.0000
     16 C11         1.6294   67.5833   83.2655 C.ar    1  VIA777      0.0000
     17 C12         2.3926   68.7193   82.7534 C.ar    1  VIA777      0.0000
     18 C13         3.7914   68.8947   83.2587 C.ar    1  VIA777      0.0000
     19 C14         4.3896   67.9838   84.2290 C.ar    1  VIA777      0.0000
     20 C15         3.6067   66.8449   84.7460 C.ar    1  VIA777      0.0000
     21 O2          4.1026   65.9021   85.7258 O.3     1  VIA777      0.0000
     22 C16         5.4165   65.9384   86.3181 C.3     1  VIA777      0.0000
     23 C17         5.2751   65.1890   87.6326 C.3     1  VIA777      0.0000
     24 S1          1.7545   69.7516   81.7090 S.o2    1  VIA777      0.0000
     25 O3          2.2699   69.7437   80.4937 O.2     1  VIA777      0.0000
     26 O4          0.4836   69.4699   81.5426 O.2     1  VIA777      0.0000
     27 N5          1.9838   71.1231   82.4806 N.pl3   1  VIA777      0.0000
     28 C18         0.8223   72.1809   82.3211 C.2     1  VIA777      0.0000
     29 C19         0.8383   73.0641   81.0585 C.2     1  VIA777      0.0000
     30 N6          2.1900   73.5083   80.5772 N.pl3   1  VIA777      0.0000
     31 C20         2.2791   74.9934   80.7340 C.3     1  VIA777      0.0000
     32 C21         3.4444   72.8628   81.1708 C.2     1  VIA777      0.0000
     33 C22         3.2776   71.9118   82.4163 C.2     1  VIA777      0.0000
@<TRIPOS>BOND
     1     1     2    1
     2    24    25    2
     3    30    32    1
     4    32    33    2
     5    30    31    1
     6    29    30    1
     7    27    33    1
     8    24    26    2
     9    24    27    1
    10    17    24    1
    11     2     3    1
    12     3     4    1
    13    27    28    1
    14    28    29    2
    15    16    17   ar
    16    17    18   ar
    17    15    16   ar
    18    18    19   ar
    19     4    14    1
    20     4     5    2
    21    13    14    1
    22    12    13    2
    23     8    14    2
    24    12    15    1
    25    15    20   ar
    26    19    20   ar
    27     5     6    1
    28    11    12    1
    29    20    21    1
    30     6     8    1
    31     8     9    1
    32     6     7    1
    33    21    22    1
    34     9    11   am
    35    22    23    1
    36     9    10    2
@<TRIPOS>SUBSTRUCTURE
     1 VIA777        1 TEMP              0 ****  ****    0 ROOT

