
##########                                Name:                 VIA
##########                    Molecular_Weight:             444.346
##########                DOCK_Rotatable_Bonds:                   7
##########                       Formal_Charge:                   0
##########                     HBond_Acceptors:                  11
##########                        HBond_Donors:                   0
##########                         Heavy_Atoms:                  33
##########                            HA_RMSDs:               0.374
##########                            HA_RMSDh:               0.374
##########                            HA_RMSDm:               0.374
##########                          Grid_Score:          -57.354252
##########                     Grid_vdw_energy:          -57.354252
##########                      Grid_es_energy:            0.000000
##########           Internal_energy_repulsive:            5.002312

@<TRIPOS>MOLECULE
VIA
 33 36 1 0 0
SMALL
NO_CHARGES


@<TRIPOS>ATOM
      1 C1         -0.6967   61.9351   80.2430 C.3     1  VIA777      0.0000
      2 C2         -0.5878   62.0792   81.7371 C.3     1  VIA777      0.0000
      3 C3         -1.5551   63.1792   82.2941 C.3     1  VIA777      0.0000
      4 C4         -1.2105   63.2172   83.7480 C.2     1  VIA777      0.0000
      5 N1         -1.7855   62.4012   84.7311 N.2     1  VIA777      0.0000
      6 N2         -1.2291   62.7023   85.9406 N.pl3   1  VIA777      0.0000
      7 C5         -1.6151   62.0259   87.1820 C.3     1  VIA777      0.0000
      8 C6         -0.3093   63.6982   85.7300 C.2     1  VIA777      0.0000
      9 C7          0.5834   64.4217   86.5909 C.2     1  VIA777      0.0000
     10 O1          0.6587   64.2247   87.7819 O.2     1  VIA777      0.0000
     11 N3          1.4011   65.4003   86.0299 N.am    1  VIA777      0.0000
     12 C8          1.4090   65.7224   84.6655 C.2     1  VIA777      0.0000
     13 N4          0.5592   65.0412   83.7863 N.2     1  VIA777      0.0000
     14 C9         -0.2847   64.0395   84.3447 C.2     1  VIA777      0.0000
     15 C10         2.2975   66.7503   84.2471 C.ar    1  VIA777      0.0000
     16 C11         1.7752   67.6676   83.2548 C.ar    1  VIA777      0.0000
     17 C12         2.5830   68.7767   82.7522 C.ar    1  VIA777      0.0000
     18 C13         3.9696   68.9232   83.2985 C.ar    1  VIA777      0.0000
     19 C14         4.5139   68.0106   84.2985 C.ar    1  VIA777      0.0000
     20 C15         3.6862   66.8992   84.8054 C.ar    1  VIA777      0.0000
     21 O2          4.1272   65.9574   85.8122 O.3     1  VIA777      0.0000
     22 C16         5.3558   66.0598   86.5594 C.3     1  VIA777      0.0000
     23 C17         5.1971   65.0812   87.7112 C.3     1  VIA777      0.0000
     24 S1          2.0042   69.8107   81.6754 S.o2    1  VIA777      0.0000
     25 O3          2.3868   69.6247   80.4257 O.2     1  VIA777      0.0000
     26 O4          0.6952   69.7211   81.6485 O.2     1  VIA777      0.0000
     27 N5          2.5134   71.1855   82.2912 N.pl3   1  VIA777      0.0000
     28 C18         1.4188   72.0129   83.0725 C.2     1  VIA777      0.0000
     29 C19         0.4809   72.9083   82.2402 C.2     1  VIA777      0.0000
     30 N6          1.1014   73.6045   81.0626 N.pl3   1  VIA777      0.0000
     31 C20         1.0846   75.0770   81.3259 C.3     1  VIA777      0.0000
     32 C21         2.5011   73.1908   80.6018 C.2     1  VIA777      0.0000
     33 C22         3.3250   72.2012   81.5102 C.2     1  VIA777      0.0000
@<TRIPOS>BOND
     1     1     2    1
     2    24    25    2
     3    30    32    1
     4    32    33    2
     5    30    31    1
     6    29    30    1
     7    27    33    1
     8    24    26    2
     9    24    27    1
    10    17    24    1
    11     2     3    1
    12     3     4    1
    13    27    28    1
    14    28    29    2
    15    16    17   ar
    16    17    18   ar
    17    15    16   ar
    18    18    19   ar
    19     4    14    1
    20     4     5    2
    21    13    14    1
    22    12    13    2
    23     8    14    2
    24    12    15    1
    25    15    20   ar
    26    19    20   ar
    27     5     6    1
    28    11    12    1
    29    20    21    1
    30     6     8    1
    31     8     9    1
    32     6     7    1
    33    21    22    1
    34     9    11   am
    35    22    23    1
    36     9    10    2
@<TRIPOS>SUBSTRUCTURE
     1 VIA777        1 TEMP              0 ****  ****    0 ROOT

