
##########                                Name:        E4D_600_1SJ0
##########                    Molecular_Weight:             464.605
##########                DOCK_Rotatable_Bonds:                   8
##########                       Formal_Charge:              1.0003
##########                     HBond_Acceptors:                   6
##########                        HBond_Donors:                   3
##########                         Heavy_Atoms:                  33
##########                            HA_RMSDs:               0.366
##########                            HA_RMSDh:               0.366
##########                            HA_RMSDm:               0.366
##########                          Grid_Score:         -112.725807
##########                     Grid_vdw_energy:          -64.729698
##########                      Grid_es_energy:          -47.996109
##########           Internal_energy_repulsive:           14.009275

@<TRIPOS>MOLECULE
E4D_600_1SJ0
 63 67 1 0 0
SMALL
USER_CHARGES


@<TRIPOS>ATOM
      1 C1         32.4981    1.5824   27.4010 C.ar    1  <0>        -0.0550
      2 C2         33.3148    0.5684   29.4381 C.ar    1  <0>        -0.0550
      3 C3         32.3108   -2.6397   26.6075 C.ar    1  <0>        -0.0536
      4 C4         30.9200   -0.8571   25.7833 C.ar    1  <0>        -0.0536
      5 C5         33.7469    2.1881   27.2069 C.ar    1  <0>        -0.0316
      6 C6         34.5759    1.1483   29.2463 C.ar    1  <0>        -0.0316
      7 C7         32.7025   -2.9684   25.3078 C.ar    1  <0>        -0.0313
      8 C8         31.2929   -1.2006   24.4555 C.ar    1  <0>        -0.0313
      9 C9         26.5097   -2.2718   27.2397 C.ar    1  <0>        -0.0294
     10 C10        27.7239   -2.6262   27.8108 C.ar    1  <0>        -0.0281
     11 C11        27.0795    0.0567   27.5981 C.ar    1  <0>        -0.0160
     12 C12        31.2551   -2.7425   17.7516 C.3     1  <0>        -0.0434
     13 C13        30.4382   -3.0371   19.0272 C.3     1  <0>        -0.0123
     14 C14        32.4200   -3.7657   17.7029 C.3     1  <0>        -0.0123
     15 C15        31.3299   -3.0883   20.2876 C.3     1  <0>        -0.0318
     16 C16        33.3021   -3.6709   18.9784 C.3     1  <0>        -0.0318
     17 C17        33.1696   -4.3823   21.4144 C.3     1  <0>        -0.0074
     18 C18        33.6210   -3.3904   22.5102 C.3     1  <0>         0.0940
     19 C19        31.4130   -1.5959   26.8617 C.ar    1  <0>        -0.0169
     20 C20        32.2787    0.7641   28.5112 C.ar    1  <0>        -0.0311
     21 C21        34.7781    1.9807   28.1377 C.ar    1  <0>         0.0726
     22 C22        32.2190   -2.2016   24.2205 C.ar    1  <0>         0.0764
     23 C23        26.1348   -0.9186   27.2387 C.ar    1  <0>         0.0738
     24 C24        28.6595   -1.6660   28.1627 C.ar    1  <0>         0.0906
     25 C25        28.3549   -0.2835   28.0191 C.ar    1  <0>         0.0410
     26 C26        31.0775   -1.3875   28.3362 C.3     1  <0>         0.1063
     27 C27        30.9829    0.0564   28.8317 C.3     1  <0>         0.0656
     28 N1         32.4928   -3.9516   20.1682 N.4     1  <0>         0.2369
     29 O1         35.9906    2.5315   27.9392 O.3     1  <0>        -0.3598
     30 O2         24.9120   -0.6010   26.7987 O.3     1  <0>        -0.3598
     31 O3         29.8533   -2.0781   28.6224 O.3     1  <0>        -0.3343
     32 O4         32.6084   -2.4667   22.9460 O.3     1  <0>        -0.3394
     33 S1         29.4141    0.7421   28.3177 S.3     1  <0>        -0.1115
     34 H1         31.7027    1.7490   26.6896 H       1  <0>         0.0621
     35 H2         33.1370   -0.0389   30.3133 H       1  <0>         0.0621
     36 H3         32.7102   -3.2046   27.4368 H       1  <0>         0.0622
     37 H4         30.2551   -0.0244   25.9587 H       1  <0>         0.0622
     38 H5         33.9162    2.8135   26.3428 H       1  <0>         0.0643
     39 H6         35.3793    0.9567   29.9421 H       1  <0>         0.0643
     40 H7         33.3685   -3.8006   25.1338 H       1  <0>         0.0643
     41 H8         30.8494   -0.6755   23.6224 H       1  <0>         0.0643
     42 H9         25.8659   -3.0219   26.8046 H       1  <0>         0.0644
     43 H10        27.9438   -3.6692   27.9843 H       1  <0>         0.0644
     44 H11        26.8044    1.0997   27.5449 H       1  <0>         0.0655
     45 H12        30.6191   -2.8484   16.8604 H       1  <0>         0.0269
     46 H13        31.6516   -1.7169   17.7828 H       1  <0>         0.0269
     47 H14        29.6910   -2.2404   19.1577 H       1  <0>         0.0317
     48 H15        29.9409   -4.0111   18.9088 H       1  <0>         0.0317
     49 H16        32.0010   -4.7804   17.6336 H       1  <0>         0.0317
     50 H17        33.0435   -3.5549   16.8215 H       1  <0>         0.0317
     51 H18        31.6873   -2.0677   20.4889 H       1  <0>         0.0814
     52 H19        30.7158   -3.4635   21.1195 H       1  <0>         0.0814
     53 H20        34.1182   -4.4055   18.9119 H       1  <0>         0.0814
     54 H21        33.7226   -2.6573   19.0553 H       1  <0>         0.0814
     55 H22        34.0899   -4.8860   21.0839 H       1  <0>         0.0837
     56 H23        32.4572   -5.0571   21.9115 H       1  <0>         0.0837
     57 H24        33.9355   -3.9788   23.3847 H       1  <0>         0.0619
     58 H25        34.4577   -2.8025   22.1048 H       1  <0>         0.0619
     59 H26        31.9405   -1.7921   28.8851 H       1  <0>         0.0666
     60 H27        30.9273    0.1785   29.9235 H       1  <0>         0.0493
     61 H28        32.1128   -4.8540   19.9651 H       1  <0>         0.2034
     62 H29        36.5903    2.2287   28.6109 H       1  <0>         0.2173
     63 H30        24.7817    0.3370   26.8739 H       1  <0>         0.2173
@<TRIPOS>BOND
     1     1     5   ar
     2     1    20   ar
     3     2     6   ar
     4     2    20   ar
     5     3     7   ar
     6     3    19   ar
     7     4     8   ar
     8     4    19   ar
     9     5    21   ar
    10     6    21   ar
    11     7    22   ar
    12     8    22   ar
    13     9    10   ar
    14     9    23   ar
    15    10    24   ar
    16    11    23   ar
    17    11    25   ar
    18    12    13    1
    19    12    14    1
    20    13    15    1
    21    14    16    1
    22    15    28    1
    23    16    28    1
    24    17    18    1
    25    17    28    1
    26    18    32    1
    27    19    26    1
    28    20    27    1
    29    21    29    1
    30    22    32    1
    31    23    30    1
    32    24    25   ar
    33    24    31    1
    34    25    33    1
    35    26    27    1
    36    26    31    1
    37    27    33    1
    38     1    34    1
    39     2    35    1
    40     3    36    1
    41     4    37    1
    42     5    38    1
    43     6    39    1
    44     7    40    1
    45     8    41    1
    46     9    42    1
    47    10    43    1
    48    11    44    1
    49    12    45    1
    50    12    46    1
    51    13    47    1
    52    13    48    1
    53    14    49    1
    54    14    50    1
    55    15    51    1
    56    15    52    1
    57    16    53    1
    58    16    54    1
    59    17    55    1
    60    17    56    1
    61    18    57    1
    62    18    58    1
    63    26    59    1
    64    27    60    1
    65    28    61    1
    66    29    62    1
    67    30    63    1
@<TRIPOS>SUBSTRUCTURE
     1 <0>         1 TEMP              0 ****  ****    0 ROOT

