
##########                                Name:        RA2_468_1B9V
##########                    Molecular_Weight:             349.407
##########                DOCK_Rotatable_Bonds:                  10
##########                       Formal_Charge:             -1.0002
##########                     HBond_Acceptors:                   7
##########                        HBond_Donors:                   3
##########                         Heavy_Atoms:                  25
##########                            HA_RMSDs:              12.654
##########                            HA_RMSDh:              12.644
##########                            HA_RMSDm:              11.401
##########                          Grid_Score:            8.876688
##########                     Grid_vdw_energy:          -15.300785
##########                      Grid_es_energy:           24.177473
##########           Internal_energy_repulsive:           16.679579

@<TRIPOS>MOLECULE
RA2_468_1B9V
 50 51 1 0 0
SMALL
USER_CHARGES


@<TRIPOS>ATOM
      1 C1         19.1954   -9.8598   71.8970 C.3     1  <0>        -0.0636
      2 C2         17.5058   -7.3882   68.4157 C.3     1  <0>        -0.0636
      3 C3         22.5921   -4.1996   71.8554 C.ar    1  <0>        -0.0510
      4 C4         23.0451   -4.5665   70.5571 C.ar    1  <0>        -0.0378
      5 C5         20.7455   -5.7815   71.6515 C.ar    1  <0>        -0.0302
      6 C6         22.7939   -6.2120   66.1795 C.3     1  <0>         0.0266
      7 C7         23.6599   -7.2979   66.8327 C.3     1  <0>        -0.0185
      8 C8         20.0432   -9.2443   70.7820 C.3     1  <0>        -0.0374
      9 C9         18.5758   -8.4113   68.8205 C.3     1  <0>        -0.0374
     10 C10        24.3738   -7.8304   69.2573 C.3     1  <0>         0.0681
     11 C11        25.3100   -5.8114   68.0178 C.3     1  <0>         0.0681
     12 C12        21.4359   -4.8159   72.4088 C.ar    1  <0>        -0.0008
     13 C13        22.3480   -5.5495   69.7986 C.ar    1  <0>         0.0579
     14 C14        21.1761   -6.1608   70.3585 C.ar    1  <0>         0.0497
     15 C15        22.0749   -5.6366   67.3929 C.2     1  <0>         0.2205
     16 C16        19.4219   -8.0134   70.0574 C.3     1  <0>         0.0202
     17 C17        20.9492   -4.4675   73.7661 C.2     1  <0>         0.0717
     18 C18        24.0460   -6.7116   68.2055 C.3     1  <0>         0.0885
     19 N1         20.5088   -7.1137   69.6113 N.pl3   1  <0>        -0.3395
     20 N2         22.7906   -5.9337   68.5266 N.am    1  <0>        -0.2591
     21 O1         23.2054   -8.3776   69.8651 O.3     1  <0>        -0.3928
     22 O2         24.9875   -4.4320   67.8853 O.3     1  <0>        -0.3928
     23 O3         21.0489   -5.4506   74.6970 O.co2   1  <0>        -0.5446
     24 O4         21.0180   -5.0228   67.3241 O.2     1  <0>        -0.2752
     25 O5         20.5064   -3.3903   74.0216 O.co2   1  <0>        -0.5446
     26 H1         19.7298  -10.7159   72.3345 H       1  <0>         0.0230
     27 H2         19.0113   -9.1055   72.6763 H       1  <0>         0.0230
     28 H3         18.2354  -10.2003   71.4819 H       1  <0>         0.0230
     29 H4         16.9607   -7.7563   67.5340 H       1  <0>         0.0230
     30 H5         16.8017   -7.2452   69.2486 H       1  <0>         0.0230
     31 H6         17.9882   -6.4295   68.1744 H       1  <0>         0.0230
     32 H7         23.1274   -3.4517   72.4215 H       1  <0>         0.0625
     33 H8         23.9248   -4.0956   70.1438 H       1  <0>         0.0637
     34 H9         19.8637   -6.2447   72.0688 H       1  <0>         0.0643
     35 H10        23.3969   -5.4567   65.6542 H       1  <0>         0.0359
     36 H11        22.0953   -6.6251   65.4370 H       1  <0>         0.0359
     37 H12        23.0995   -8.2376   66.9460 H       1  <0>         0.0292
     38 H13        24.5529   -7.5112   66.2268 H       1  <0>         0.0292
     39 H14        20.9916   -8.9166   71.2328 H       1  <0>         0.0280
     40 H15        20.2064  -10.0246   70.0240 H       1  <0>         0.0280
     41 H16        18.0639   -9.3563   69.0549 H       1  <0>         0.0280
     42 H17        19.2625   -8.5321   67.9697 H       1  <0>         0.0280
     43 H18        24.9101   -8.6422   68.7441 H       1  <0>         0.0579
     44 H19        25.0017   -7.3912   70.0464 H       1  <0>         0.0579
     45 H20        25.9573   -5.9336   68.8987 H       1  <0>         0.0579
     46 H21        25.8342   -6.1346   67.1064 H       1  <0>         0.0579
     47 H22        18.7552   -7.5154   70.7766 H       1  <0>         0.0497
     48 H23        20.0936   -6.5874   68.8692 H       1  <0>         0.1464
     49 H24        23.3682   -9.2814   70.1083 H       1  <0>         0.2095
     50 H25        25.7823   -3.9335   67.7359 H       1  <0>         0.2095
@<TRIPOS>BOND
     1     1     8    1
     2     2     9    1
     3     3     4   ar
     4     3    12   ar
     5     4    13   ar
     6     5    12   ar
     7     5    14   ar
     8     6     7    1
     9     6    15    1
    10     7    18    1
    11     8    16    1
    12     9    16    1
    13    10    18    1
    14    10    21    1
    15    11    18    1
    16    11    22    1
    17    12    17    1
    18    13    14   ar
    19    13    20    1
    20    14    19    1
    21    15    20   am
    22    15    24    2
    23    16    19    1
    24    17    23    1
    25    17    25    2
    26    18    20    1
    27     1    26    1
    28     1    27    1
    29     1    28    1
    30     2    29    1
    31     2    30    1
    32     2    31    1
    33     3    32    1
    34     4    33    1
    35     5    34    1
    36     6    35    1
    37     6    36    1
    38     7    37    1
    39     7    38    1
    40     8    39    1
    41     8    40    1
    42     9    41    1
    43     9    42    1
    44    10    43    1
    45    10    44    1
    46    11    45    1
    47    11    46    1
    48    16    47    1
    49    19    48    1
    50    21    49    1
    51    22    50    1
@<TRIPOS>SUBSTRUCTURE
     1 <0>         1 TEMP              0 ****  ****    0 ROOT

