
##########                                Name:        RA2_468_1B9V
##########                    Molecular_Weight:             349.407
##########                DOCK_Rotatable_Bonds:                  10
##########                       Formal_Charge:             -1.0002
##########                     HBond_Acceptors:                   7
##########                        HBond_Donors:                   3
##########                         Heavy_Atoms:                  25
##########                            HA_RMSDs:              14.849
##########                            HA_RMSDh:              14.810
##########                            HA_RMSDm:              13.466
##########                          Grid_Score:           10.658625
##########                     Grid_vdw_energy:          -18.926804
##########                      Grid_es_energy:           29.585428
##########           Internal_energy_repulsive:           14.812415

@<TRIPOS>MOLECULE
RA2_468_1B9V
 50 51 1 0 0
SMALL
USER_CHARGES


@<TRIPOS>ATOM
      1 C1         30.3725  -23.7231   76.8945 C.3     1  <0>        -0.0636
      2 C2         27.7502  -22.4160   73.2881 C.3     1  <0>        -0.0636
      3 C3         30.2265  -16.9325   76.3034 C.ar    1  <0>        -0.0510
      4 C4         30.5420  -17.0818   74.9237 C.ar    1  <0>        -0.0378
      5 C5         29.8196  -19.3330   76.4639 C.ar    1  <0>        -0.0302
      6 C6         30.5268  -18.9403   70.6456 C.3     1  <0>         0.0266
      7 C7         31.9625  -19.2958   71.0557 C.3     1  <0>        -0.0185
      8 C8         30.7821  -22.7009   75.8324 C.3     1  <0>        -0.0374
      9 C9         29.0677  -22.9048   73.9051 C.3     1  <0>        -0.0374
     10 C10        33.3085  -19.1434   73.2550 C.3     1  <0>         0.0681
     11 C11        32.6734  -17.0515   71.9473 C.3     1  <0>         0.0681
     12 C12        29.8674  -18.0682   77.0807 C.ar    1  <0>        -0.0008
     13 C13        30.5001  -18.3644   74.3067 C.ar    1  <0>         0.0579
     14 C14        30.1275  -19.5054   75.0939 C.ar    1  <0>         0.0497
     15 C15        29.8617  -18.7771   72.0063 C.2     1  <0>         0.2205
     16 C16        29.6139  -22.0222   75.0570 C.3     1  <0>         0.0202
     17 C17        29.5502  -17.9474   78.5247 C.2     1  <0>         0.0717
     18 C18        32.2074  -18.4890   72.3468 C.3     1  <0>         0.0885
     19 N1         30.0908  -20.7447   74.4823 N.pl3   1  <0>        -0.3395
     20 N2         30.8241  -18.5305   72.9543 N.am    1  <0>        -0.2591
     21 O1         32.9679  -20.4637   73.6729 O.3     1  <0>        -0.3928
     22 O2         31.6269  -16.0913   72.0315 O.3     1  <0>        -0.3928
     23 O3         30.1723  -18.8369   79.3400 O.co2   1  <0>        -0.5446
     24 O4         28.6544  -18.8722   72.1843 O.2     1  <0>        -0.2752
     25 O5         28.8023  -17.1168   78.9402 O.co2   1  <0>        -0.5446
     26 H1         31.2727  -24.1348   77.3742 H       1  <0>         0.0230
     27 H2         29.7450  -23.2322   77.6530 H       1  <0>         0.0230
     28 H3         29.8052  -24.5373   76.4200 H       1  <0>         0.0230
     29 H4         27.4443  -23.1021   72.4846 H       1  <0>         0.0230
     30 H5         26.9704  -22.3887   74.0634 H       1  <0>         0.0230
     31 H6         27.8916  -21.4068   72.8743 H       1  <0>         0.0230
     32 H7         30.2599  -15.9548   76.7611 H       1  <0>         0.0625
     33 H8         30.8155  -16.2153   74.3399 H       1  <0>         0.0637
     34 H9         29.5405  -20.1945   77.0523 H       1  <0>         0.0643
     35 H10        30.4796  -18.0204   70.0445 H       1  <0>         0.0359
     36 H11        30.0564  -19.7313   70.0430 H       1  <0>         0.0359
     37 H12        32.0678  -20.3757   71.2366 H       1  <0>         0.0292
     38 H13        32.6804  -19.0158   70.2706 H       1  <0>         0.0292
     39 H14        31.3450  -21.9049   76.3418 H       1  <0>         0.0280
     40 H15        31.4060  -23.2257   75.0940 H       1  <0>         0.0280
     41 H16        28.8947  -23.9132   74.3090 H       1  <0>         0.0280
     42 H17        29.8252  -22.9211   73.1076 H       1  <0>         0.0280
     43 H18        34.2463  -19.1922   72.6822 H       1  <0>         0.0579
     44 H19        33.4353  -18.5181   74.1511 H       1  <0>         0.0579
     45 H20        33.4806  -16.7461   72.6293 H       1  <0>         0.0579
     46 H21        33.0359  -17.0799   70.9092 H       1  <0>         0.0579
     47 H22        28.7970  -21.8615   75.7758 H       1  <0>         0.0497
     48 H23        29.4968  -20.6027   73.6905 H       1  <0>         0.1464
     49 H24        33.7551  -20.9262   73.9354 H       1  <0>         0.2095
     50 H25        31.9960  -15.2352   72.2141 H       1  <0>         0.2095
@<TRIPOS>BOND
     1     1     8    1
     2     2     9    1
     3     3     4   ar
     4     3    12   ar
     5     4    13   ar
     6     5    12   ar
     7     5    14   ar
     8     6     7    1
     9     6    15    1
    10     7    18    1
    11     8    16    1
    12     9    16    1
    13    10    18    1
    14    10    21    1
    15    11    18    1
    16    11    22    1
    17    12    17    1
    18    13    14   ar
    19    13    20    1
    20    14    19    1
    21    15    20   am
    22    15    24    2
    23    16    19    1
    24    17    23    1
    25    17    25    2
    26    18    20    1
    27     1    26    1
    28     1    27    1
    29     1    28    1
    30     2    29    1
    31     2    30    1
    32     2    31    1
    33     3    32    1
    34     4    33    1
    35     5    34    1
    36     6    35    1
    37     6    36    1
    38     7    37    1
    39     7    38    1
    40     8    39    1
    41     8    40    1
    42     9    41    1
    43     9    42    1
    44    10    43    1
    45    10    44    1
    46    11    45    1
    47    11    46    1
    48    16    47    1
    49    19    48    1
    50    21    49    1
    51    22    50    1
@<TRIPOS>SUBSTRUCTURE
     1 <0>         1 TEMP              0 ****  ****    0 ROOT

