
##########                                Name:        RA2_468_1B9V
##########                    Molecular_Weight:             349.407
##########                DOCK_Rotatable_Bonds:                  10
##########                       Formal_Charge:             -1.0002
##########                     HBond_Acceptors:                   7
##########                        HBond_Donors:                   3
##########                         Heavy_Atoms:                  25
##########                            HA_RMSDs:              12.189
##########                            HA_RMSDh:              12.017
##########                            HA_RMSDm:              10.670
##########                          Grid_Score:            9.014103
##########                     Grid_vdw_energy:          -17.840710
##########                      Grid_es_energy:           26.854813
##########           Internal_energy_repulsive:           15.911349

@<TRIPOS>MOLECULE
RA2_468_1B9V
 50 51 1 0 0
SMALL
USER_CHARGES


@<TRIPOS>ATOM
      1 C1         20.2784   -9.8818   71.8509 C.3     1  <0>        -0.0636
      2 C2         24.6919   -9.2716   73.3181 C.3     1  <0>        -0.0636
      3 C3         23.3653  -15.8942   72.8634 C.ar    1  <0>        -0.0510
      4 C4         24.3452  -15.4097   71.9521 C.ar    1  <0>        -0.0378
      5 C5         22.5771  -13.6125   73.2193 C.ar    1  <0>        -0.0302
      6 C6         27.3219  -12.4203   69.9658 C.3     1  <0>         0.0266
      7 C7         26.2547  -12.4589   68.8634 C.3     1  <0>        -0.0185
      8 C8         21.4992  -10.6978   71.4213 C.3     1  <0>        -0.0374
      9 C9         23.4737   -9.3324   72.3865 C.3     1  <0>        -0.0374
     10 C10        23.8892  -13.4776   68.6672 C.3     1  <0>         0.0681
     11 C11        25.9649  -14.9540   68.6973 C.3     1  <0>         0.0681
     12 C12        22.4709  -14.9886   73.4981 C.ar    1  <0>        -0.0008
     13 C13        24.4431  -14.0180   71.6674 C.ar    1  <0>         0.0579
     14 C14        23.5441  -13.1079   72.3185 C.ar    1  <0>         0.0497
     15 C15        26.5093  -12.8504   71.1803 C.2     1  <0>         0.2205
     16 C16        22.7077  -10.6804   72.4039 C.3     1  <0>         0.0202
     17 C17        21.4277  -15.4647   74.4391 C.2     1  <0>         0.0717
     18 C18        25.3371  -13.6351   69.2537 C.3     1  <0>         0.0885
     19 N1         23.6500  -11.7593   72.0330 N.pl3   1  <0>        -0.3395
     20 N2         25.3907  -13.5273   70.7603 N.am    1  <0>        -0.2591
     21 O1         23.3460  -12.1757   68.8771 O.3     1  <0>        -0.3928
     22 O2         26.8163  -15.5971   69.6385 O.3     1  <0>        -0.3928
     23 O3         20.6785  -14.4964   75.0257 O.co2   1  <0>        -0.5446
     24 O4         26.8329  -12.5988   72.3337 O.2     1  <0>        -0.2752
     25 O5         21.2560  -16.6241   74.6584 O.co2   1  <0>        -0.5446
     26 H1         19.4923   -9.9667   71.0862 H       1  <0>         0.0230
     27 H2         19.8999  -10.2657   72.8098 H       1  <0>         0.0230
     28 H3         20.5653   -8.8261   71.9659 H       1  <0>         0.0230
     29 H4         25.1671   -8.2829   73.2370 H       1  <0>         0.0230
     30 H5         24.3682   -9.4387   74.3560 H       1  <0>         0.0230
     31 H6         25.4135  -10.0498   73.0291 H       1  <0>         0.0230
     32 H7         23.3008  -16.9516   73.0734 H       1  <0>         0.0625
     33 H8         25.0201  -16.1033   71.4725 H       1  <0>         0.0637
     34 H9         21.9023  -12.9240   73.7062 H       1  <0>         0.0643
     35 H10        28.1595  -13.1031   69.7605 H       1  <0>         0.0359
     36 H11        27.7591  -11.4185   70.0892 H       1  <0>         0.0359
     37 H12        25.6927  -11.5142   68.8218 H       1  <0>         0.0292
     38 H13        26.7102  -12.6218   67.8755 H       1  <0>         0.0292
     39 H14        21.1753  -11.7439   71.3167 H       1  <0>         0.0280
     40 H15        21.8487  -10.2870   70.4626 H       1  <0>         0.0280
     41 H16        22.7727   -8.5448   72.6999 H       1  <0>         0.0280
     42 H17        23.8288   -9.1622   71.3594 H       1  <0>         0.0280
     43 H18        23.9316  -13.6650   67.5842 H       1  <0>         0.0579
     44 H19        23.2337  -14.2103   69.1606 H       1  <0>         0.0579
     45 H20        25.1489  -15.6448   68.4385 H       1  <0>         0.0579
     46 H21        26.5583  -14.7065   67.8047 H       1  <0>         0.0579
     47 H22        22.3048  -10.8268   73.4169 H       1  <0>         0.0497
     48 H23        24.5070  -11.4890   72.4717 H       1  <0>         0.1464
     49 H24        22.4404  -12.1600   68.5903 H       1  <0>         0.2095
     50 H25        27.4525  -16.1311   69.1774 H       1  <0>         0.2095
@<TRIPOS>BOND
     1     1     8    1
     2     2     9    1
     3     3     4   ar
     4     3    12   ar
     5     4    13   ar
     6     5    12   ar
     7     5    14   ar
     8     6     7    1
     9     6    15    1
    10     7    18    1
    11     8    16    1
    12     9    16    1
    13    10    18    1
    14    10    21    1
    15    11    18    1
    16    11    22    1
    17    12    17    1
    18    13    14   ar
    19    13    20    1
    20    14    19    1
    21    15    20   am
    22    15    24    2
    23    16    19    1
    24    17    23    1
    25    17    25    2
    26    18    20    1
    27     1    26    1
    28     1    27    1
    29     1    28    1
    30     2    29    1
    31     2    30    1
    32     2    31    1
    33     3    32    1
    34     4    33    1
    35     5    34    1
    36     6    35    1
    37     6    36    1
    38     7    37    1
    39     7    38    1
    40     8    39    1
    41     8    40    1
    42     9    41    1
    43     9    42    1
    44    10    43    1
    45    10    44    1
    46    11    45    1
    47    11    46    1
    48    16    47    1
    49    19    48    1
    50    21    49    1
    51    22    50    1
@<TRIPOS>SUBSTRUCTURE
     1 <0>         1 TEMP              0 ****  ****    0 ROOT

