
##########                                Name:        RA2_468_1B9V
##########                    Molecular_Weight:             349.407
##########                DOCK_Rotatable_Bonds:                  10
##########                       Formal_Charge:             -1.0002
##########                     HBond_Acceptors:                   7
##########                        HBond_Donors:                   3
##########                         Heavy_Atoms:                  25
##########                            HA_RMSDs:              13.093
##########                            HA_RMSDh:              12.640
##########                            HA_RMSDm:              11.540
##########                          Grid_Score:            8.908245
##########                     Grid_vdw_energy:          -15.084335
##########                      Grid_es_energy:           23.992580
##########           Internal_energy_repulsive:           14.305753

@<TRIPOS>MOLECULE
RA2_468_1B9V
 50 51 1 0 0
SMALL
USER_CHARGES


@<TRIPOS>ATOM
      1 C1         26.6533   -2.8316   70.2155 C.3     1  <0>        -0.0636
      2 C2         25.4616   -5.7413   73.6877 C.3     1  <0>        -0.0636
      3 C3         19.8988   -5.2438   71.4466 C.ar    1  <0>        -0.0510
      4 C4         20.4140   -5.7975   70.2411 C.ar    1  <0>        -0.0378
      5 C5         22.1129   -4.3707   71.9847 C.ar    1  <0>        -0.0302
      6 C6         23.5355   -7.5747   67.2690 C.3     1  <0>         0.0266
      7 C7         23.3278   -6.2079   66.6022 C.3     1  <0>        -0.0185
      8 C8         26.4107   -4.3108   70.5218 C.3     1  <0>        -0.0374
      9 C9         25.2725   -5.9409   72.1778 C.3     1  <0>        -0.0374
     10 C10        22.0824   -4.0425   67.2594 C.3     1  <0>         0.0681
     11 C11        20.8110   -6.1537   66.6145 C.3     1  <0>         0.0681
     12 C12        20.7543   -4.5203   72.3228 C.ar    1  <0>        -0.0008
     13 C13        21.7870   -5.6364   69.8998 C.ar    1  <0>         0.0579
     14 C14        22.6476   -4.9136   70.7928 C.ar    1  <0>         0.0497
     15 C15        23.1092   -7.2742   68.7001 C.2     1  <0>         0.2205
     16 C16        25.1372   -4.6306   71.3599 C.3     1  <0>         0.0202
     17 C17        20.2432   -3.9166   73.5778 C.2     1  <0>         0.0717
     18 C18        22.0981   -5.6115   67.3163 C.3     1  <0>         0.0885
     19 N1         23.9784   -4.7646   70.4493 N.pl3   1  <0>        -0.3395
     20 N2         22.3056   -6.1606   68.7091 N.am    1  <0>        -0.2591
     21 O1         23.3863   -3.4725   67.3530 O.3     1  <0>        -0.3928
     22 O2         20.2264   -7.2492   67.3090 O.3     1  <0>        -0.3928
     23 O3         19.9705   -4.7888   74.5816 O.co2   1  <0>        -0.5446
     24 O4         23.4624   -7.9401   69.6646 O.2     1  <0>        -0.2752
     25 O5         20.0898   -2.7401   73.6963 O.co2   1  <0>        -0.5446
     26 H1         27.5738   -2.7256   69.6227 H       1  <0>         0.0230
     27 H2         25.8021   -2.4309   69.6454 H       1  <0>         0.0230
     28 H3         26.7582   -2.2745   71.1582 H       1  <0>         0.0230
     29 H4         25.5475   -6.7213   74.1797 H       1  <0>         0.0230
     30 H5         26.3771   -5.1589   73.8685 H       1  <0>         0.0230
     31 H6         24.5958   -5.2002   74.0970 H       1  <0>         0.0230
     32 H7         18.8561   -5.3733   71.6967 H       1  <0>         0.0625
     33 H8         19.7583   -6.3443   69.5797 H       1  <0>         0.0637
     34 H9         22.7641   -3.8271   72.6531 H       1  <0>         0.0643
     35 H10        22.9221   -8.3624   66.8071 H       1  <0>         0.0359
     36 H11        24.5795   -7.9155   67.2069 H       1  <0>         0.0359
     37 H12        24.2114   -5.5654   66.7303 H       1  <0>         0.0292
     38 H13        23.1459   -6.3164   65.5228 H       1  <0>         0.0292
     39 H14        26.3111   -4.8339   69.5594 H       1  <0>         0.0280
     40 H15        27.2788   -4.6756   71.0903 H       1  <0>         0.0280
     41 H16        26.1515   -6.4829   71.7989 H       1  <0>         0.0280
     42 H17        24.3519   -6.5247   72.0298 H       1  <0>         0.0280
     43 H18        21.6376   -3.7349   66.3015 H       1  <0>         0.0579
     44 H19        21.4804   -3.6711   68.1017 H       1  <0>         0.0579
     45 H20        20.0728   -5.3396   66.5660 H       1  <0>         0.0579
     46 H21        21.0823   -6.4890   65.6026 H       1  <0>         0.0579
     47 H22        24.9990   -3.8021   72.0699 H       1  <0>         0.0497
     48 H23        24.1829   -5.5898   69.9226 H       1  <0>         0.1464
     49 H24        23.4050   -2.8380   68.0598 H       1  <0>         0.2095
     50 H25        20.3209   -8.0399   66.7909 H       1  <0>         0.2095
@<TRIPOS>BOND
     1     1     8    1
     2     2     9    1
     3     3     4   ar
     4     3    12   ar
     5     4    13   ar
     6     5    12   ar
     7     5    14   ar
     8     6     7    1
     9     6    15    1
    10     7    18    1
    11     8    16    1
    12     9    16    1
    13    10    18    1
    14    10    21    1
    15    11    18    1
    16    11    22    1
    17    12    17    1
    18    13    14   ar
    19    13    20    1
    20    14    19    1
    21    15    20   am
    22    15    24    2
    23    16    19    1
    24    17    23    1
    25    17    25    2
    26    18    20    1
    27     1    26    1
    28     1    27    1
    29     1    28    1
    30     2    29    1
    31     2    30    1
    32     2    31    1
    33     3    32    1
    34     4    33    1
    35     5    34    1
    36     6    35    1
    37     6    36    1
    38     7    37    1
    39     7    38    1
    40     8    39    1
    41     8    40    1
    42     9    41    1
    43     9    42    1
    44    10    43    1
    45    10    44    1
    46    11    45    1
    47    11    46    1
    48    16    47    1
    49    19    48    1
    50    21    49    1
    51    22    50    1
@<TRIPOS>SUBSTRUCTURE
     1 <0>         1 TEMP              0 ****  ****    0 ROOT

