
##########                                Name:        RA2_468_1B9V
##########                    Molecular_Weight:             349.407
##########                DOCK_Rotatable_Bonds:                  10
##########                       Formal_Charge:             -1.0002
##########                     HBond_Acceptors:                   7
##########                        HBond_Donors:                   3
##########                         Heavy_Atoms:                  25
##########                            HA_RMSDs:               6.449
##########                            HA_RMSDh:               5.939
##########                            HA_RMSDm:               5.434
##########                          Grid_Score:           12.588837
##########                     Grid_vdw_energy:          -32.599541
##########                      Grid_es_energy:           45.188377
##########           Internal_energy_repulsive:           16.896975

@<TRIPOS>MOLECULE
RA2_468_1B9V
 50 51 1 0 0
SMALL
USER_CHARGES


@<TRIPOS>ATOM
      1 C1         33.5906  -12.1519   69.6901 C.3     1  <0>        -0.0636
      2 C2         30.3736  -14.3779   67.3863 C.3     1  <0>        -0.0636
      3 C3         27.2968   -8.7256   68.9608 C.ar    1  <0>        -0.0510
      4 C4         27.5240   -8.9730   67.5778 C.ar    1  <0>        -0.0378
      5 C5         29.0951  -10.2747   69.5270 C.ar    1  <0>        -0.0302
      6 C6         28.8260  -11.2544   63.7341 C.3     1  <0>         0.0266
      7 C7         29.9672  -10.2290   63.7820 C.3     1  <0>        -0.0185
      8 C8         32.4761  -11.3934   68.9667 C.3     1  <0>        -0.0374
      9 C9         31.5781  -13.5249   67.8070 C.3     1  <0>        -0.0374
     10 C10        30.7422   -8.4604   65.4975 C.3     1  <0>         0.0681
     11 C11        28.5988   -8.1495   64.1565 C.3     1  <0>         0.0681
     12 C12        28.0923   -9.3781   69.9429 C.ar    1  <0>        -0.0008
     13 C13        28.5448   -9.8745   67.1623 C.ar    1  <0>         0.0579
     14 C14        29.3379  -10.5373   68.1583 C.ar    1  <0>         0.0497
     15 C15        28.3846  -11.2750   65.1918 C.2     1  <0>         0.2205
     16 C16        31.2204  -12.2325   68.5853 C.3     1  <0>         0.0202
     17 C17        27.8914   -9.1277   71.3912 C.2     1  <0>         0.0717
     18 C18        29.5231   -9.2049   64.8457 C.3     1  <0>         0.0885
     19 N1         30.3256  -11.4101   67.7410 N.pl3   1  <0>        -0.3395
     20 N2         28.7920  -10.1158   65.8050 N.am    1  <0>        -0.2591
     21 O1         31.7827   -9.3492   65.8990 O.3     1  <0>        -0.3928
     22 O2         27.2156   -8.4179   64.3541 O.3     1  <0>        -0.3928
     23 O3         28.3681  -10.0865   72.2255 O.co2   1  <0>        -0.5446
     24 O4         27.7750  -12.2068   65.7004 O.2     1  <0>        -0.2752
     25 O5         27.3520   -8.1433   71.7935 O.co2   1  <0>        -0.5446
     26 H1         34.4209  -11.4643   69.9083 H       1  <0>         0.0230
     27 H2         33.2007  -12.5662   70.6316 H       1  <0>         0.0230
     28 H3         33.9514  -12.9709   69.0505 H       1  <0>         0.0230
     29 H4         30.7254  -15.2678   66.8437 H       1  <0>         0.0230
     30 H5         29.8159  -14.6911   68.2812 H       1  <0>         0.0230
     31 H6         29.7160  -13.7862   66.7326 H       1  <0>         0.0230
     32 H7         26.5187   -8.0412   69.2651 H       1  <0>         0.0625
     33 H8         26.9171   -8.4729   66.8375 H       1  <0>         0.0637
     34 H9         29.6949  -10.7752   70.2728 H       1  <0>         0.0643
     35 H10        28.0159  -10.9464   63.0567 H       1  <0>         0.0359
     36 H11        29.1653  -12.2413   63.3863 H       1  <0>         0.0359
     37 H12        30.9177  -10.7060   64.0629 H       1  <0>         0.0292
     38 H13        30.1098   -9.7480   62.8031 H       1  <0>         0.0292
     39 H14        32.1415  -10.5853   69.6339 H       1  <0>         0.0280
     40 H15        32.9013  -10.9948   68.0338 H       1  <0>         0.0280
     41 H16        32.2148  -14.1423   68.4577 H       1  <0>         0.0280
     42 H17        32.1138  -13.2282   66.8932 H       1  <0>         0.0280
     43 H18        31.1534   -7.7563   64.7592 H       1  <0>         0.0579
     44 H19        30.3841   -7.9216   66.3871 H       1  <0>         0.0579
     45 H20        28.8246   -7.1601   64.5809 H       1  <0>         0.0579
     46 H21        28.8039   -8.1614   63.0758 H       1  <0>         0.0579
     47 H22        30.7300  -12.5286   69.5243 H       1  <0>         0.0497
     48 H23        29.8323  -12.0830   67.1899 H       1  <0>         0.1464
     49 H24        32.3843   -8.8932   66.4757 H       1  <0>         0.2095
     50 H25        26.6993   -7.7136   63.9800 H       1  <0>         0.2095
@<TRIPOS>BOND
     1     1     8    1
     2     2     9    1
     3     3     4   ar
     4     3    12   ar
     5     4    13   ar
     6     5    12   ar
     7     5    14   ar
     8     6     7    1
     9     6    15    1
    10     7    18    1
    11     8    16    1
    12     9    16    1
    13    10    18    1
    14    10    21    1
    15    11    18    1
    16    11    22    1
    17    12    17    1
    18    13    14   ar
    19    13    20    1
    20    14    19    1
    21    15    20   am
    22    15    24    2
    23    16    19    1
    24    17    23    1
    25    17    25    2
    26    18    20    1
    27     1    26    1
    28     1    27    1
    29     1    28    1
    30     2    29    1
    31     2    30    1
    32     2    31    1
    33     3    32    1
    34     4    33    1
    35     5    34    1
    36     6    35    1
    37     6    36    1
    38     7    37    1
    39     7    38    1
    40     8    39    1
    41     8    40    1
    42     9    41    1
    43     9    42    1
    44    10    43    1
    45    10    44    1
    46    11    45    1
    47    11    46    1
    48    16    47    1
    49    19    48    1
    50    21    49    1
    51    22    50    1
@<TRIPOS>SUBSTRUCTURE
     1 <0>         1 TEMP              0 ****  ****    0 ROOT

