
##########                                Name:        RA2_468_1B9V
##########                    Molecular_Weight:             349.407
##########                DOCK_Rotatable_Bonds:                  10
##########                       Formal_Charge:             -1.0002
##########                     HBond_Acceptors:                   7
##########                        HBond_Donors:                   3
##########                         Heavy_Atoms:                  25
##########                            HA_RMSDs:              11.231
##########                            HA_RMSDh:              11.133
##########                            HA_RMSDm:              10.303
##########                          Grid_Score:           10.785198
##########                     Grid_vdw_energy:          -23.241341
##########                      Grid_es_energy:           34.026539
##########           Internal_energy_repulsive:           19.149374

@<TRIPOS>MOLECULE
RA2_468_1B9V
 50 51 1 0 0
SMALL
USER_CHARGES


@<TRIPOS>ATOM
      1 C1         24.2087  -14.1335   68.8402 C.3     1  <0>        -0.0636
      2 C2         27.4734  -12.4303   71.6738 C.3     1  <0>        -0.0636
      3 C3         27.6069  -18.6720   73.2964 C.ar    1  <0>        -0.0510
      4 C4         28.7543  -18.1509   72.6350 C.ar    1  <0>        -0.0378
      5 C5         26.2588  -16.8604   72.3718 C.ar    1  <0>        -0.0302
      6 C6         31.6926  -15.1448   70.7568 C.3     1  <0>         0.0266
      7 C7         31.0539  -15.5565   69.4232 C.3     1  <0>        -0.0185
      8 C8         25.4600  -14.8823   69.3032 C.3     1  <0>        -0.0374
      9 C9         26.5203  -12.8845   70.5600 C.3     1  <0>        -0.0374
     10 C10        29.0358  -17.0251   68.7583 C.3     1  <0>         0.0681
     11 C11        31.1667  -18.0561   69.6993 C.3     1  <0>         0.0681
     12 C12        26.3481  -18.0241   73.1594 C.ar    1  <0>        -0.0008
     13 C13        28.6568  -16.9784   71.8330 C.ar    1  <0>         0.0579
     14 C14        27.3858  -16.3234   71.7064 C.ar    1  <0>         0.0497
     15 C15        30.5956  -15.5283   71.7416 C.2     1  <0>         0.2205
     16 C16        26.1027  -14.3762   70.6288 C.3     1  <0>         0.0202
     17 C17        25.1308  -18.5528   73.8220 C.2     1  <0>         0.0717
     18 C18        30.2239  -16.8110   69.7622 C.3     1  <0>         0.0885
     19 N1         27.3054  -15.1859   70.9248 N.pl3   1  <0>        -0.3395
     20 N2         29.7729  -16.4627   71.1621 N.am    1  <0>        -0.2591
     21 O1         28.6293  -15.8180   68.1168 O.3     1  <0>        -0.3928
     22 O2         30.7391  -19.1128   70.5506 O.3     1  <0>        -0.3928
     23 O3         24.2927  -17.6205   74.3429 O.co2   1  <0>        -0.5446
     24 O4         30.4927  -15.0440   72.8611 O.2     1  <0>        -0.2752
     25 O5         24.9024  -19.7214   73.8849 O.co2   1  <0>        -0.5446
     26 H1         23.8439  -14.5739   67.9007 H       1  <0>         0.0230
     27 H2         23.4275  -14.2139   69.6104 H       1  <0>         0.0230
     28 H3         24.4552  -13.0740   68.6769 H       1  <0>         0.0230
     29 H4         27.7113  -11.3645   71.5416 H       1  <0>         0.0230
     30 H5         26.9922  -12.5798   72.6516 H       1  <0>         0.0230
     31 H6         28.4000  -13.0212   71.6268 H       1  <0>         0.0230
     32 H7         27.6922  -19.5611   73.9036 H       1  <0>         0.0625
     33 H8         29.7066  -18.6489   72.7422 H       1  <0>         0.0637
     34 H9         25.3044  -16.3646   72.2730 H       1  <0>         0.0643
     35 H10        32.6342  -15.6790   70.9515 H       1  <0>         0.0359
     36 H11        31.9296  -14.0712   70.7928 H       1  <0>         0.0359
     37 H12        30.4157  -14.7542   69.0244 H       1  <0>         0.0292
     38 H13        31.8217  -15.7807   68.6680 H       1  <0>         0.0292
     39 H14        25.1762  -15.9341   69.4558 H       1  <0>         0.0280
     40 H15        26.2163  -14.7804   68.5110 H       1  <0>         0.0280
     41 H16        25.6061  -12.2771   70.6331 H       1  <0>         0.0280
     42 H17        27.0285  -12.7230   69.5978 H       1  <0>         0.0280
     43 H18        29.3598  -17.7367   67.9846 H       1  <0>         0.0579
     44 H19        28.1777  -17.4266   69.3172 H       1  <0>         0.0579
     45 H20        31.1818  -18.4284   68.6644 H       1  <0>         0.0579
     46 H21        32.1744  -17.7447   70.0117 H       1  <0>         0.0579
     47 H22        25.3431  -14.4781   71.4178 H       1  <0>         0.0497
     48 H23        27.9218  -14.5413   71.3771 H       1  <0>         0.1464
     49 H24        28.1399  -16.0264   67.3297 H       1  <0>         0.2095
     50 H25        31.4308  -19.7597   70.6252 H       1  <0>         0.2095
@<TRIPOS>BOND
     1     1     8    1
     2     2     9    1
     3     3     4   ar
     4     3    12   ar
     5     4    13   ar
     6     5    12   ar
     7     5    14   ar
     8     6     7    1
     9     6    15    1
    10     7    18    1
    11     8    16    1
    12     9    16    1
    13    10    18    1
    14    10    21    1
    15    11    18    1
    16    11    22    1
    17    12    17    1
    18    13    14   ar
    19    13    20    1
    20    14    19    1
    21    15    20   am
    22    15    24    2
    23    16    19    1
    24    17    23    1
    25    17    25    2
    26    18    20    1
    27     1    26    1
    28     1    27    1
    29     1    28    1
    30     2    29    1
    31     2    30    1
    32     2    31    1
    33     3    32    1
    34     4    33    1
    35     5    34    1
    36     6    35    1
    37     6    36    1
    38     7    37    1
    39     7    38    1
    40     8    39    1
    41     8    40    1
    42     9    41    1
    43     9    42    1
    44    10    43    1
    45    10    44    1
    46    11    45    1
    47    11    46    1
    48    16    47    1
    49    19    48    1
    50    21    49    1
    51    22    50    1
@<TRIPOS>SUBSTRUCTURE
     1 <0>         1 TEMP              0 ****  ****    0 ROOT

