
##########                                Name:        RA2_468_1B9V
##########                    Molecular_Weight:             349.407
##########                DOCK_Rotatable_Bonds:                  10
##########                       Formal_Charge:             -1.0002
##########                     HBond_Acceptors:                   7
##########                        HBond_Donors:                   3
##########                         Heavy_Atoms:                  25
##########                            HA_RMSDs:               6.126
##########                            HA_RMSDh:               5.732
##########                            HA_RMSDm:               5.209
##########                          Grid_Score:           12.916992
##########                     Grid_vdw_energy:          -33.874130
##########                      Grid_es_energy:           46.791122
##########           Internal_energy_repulsive:           16.542679

@<TRIPOS>MOLECULE
RA2_468_1B9V
 50 51 1 0 0
SMALL
USER_CHARGES


@<TRIPOS>ATOM
      1 C1         32.9465  -12.8475   69.3259 C.3     1  <0>        -0.0636
      2 C2         29.2348  -14.5361   67.2963 C.3     1  <0>        -0.0636
      3 C3         27.5015   -8.3120   68.5696 C.ar    1  <0>        -0.0510
      4 C4         27.7133   -8.5418   67.1812 C.ar    1  <0>        -0.0378
      5 C5         28.9144  -10.2303   69.0965 C.ar    1  <0>        -0.0302
      6 C6         28.6552  -10.9034   63.2684 C.3     1  <0>         0.0266
      7 C7         29.9465  -10.0802   63.3719 C.3     1  <0>        -0.0185
      8 C8         32.1054  -12.0074   68.3629 C.3     1  <0>        -0.0374
      9 C9         30.6206  -13.8811   67.3731 C.3     1  <0>        -0.0374
     10 C10        30.9639   -8.5246   65.1654 C.3     1  <0>         0.0681
     11 C11        28.9268   -7.8203   63.8077 C.3     1  <0>         0.0681
     12 C12        28.1112   -9.1602   69.5349 C.ar    1  <0>        -0.0008
     13 C13        28.5331   -9.6205   66.7433 C.ar    1  <0>         0.0579
     14 C14        29.1379  -10.4790   67.7220 C.ar    1  <0>         0.0497
     15 C15        28.1872  -10.9043   64.7179 C.2     1  <0>         0.2205
     16 C16        30.6554  -12.5158   68.1072 C.3     1  <0>         0.0202
     17 C17        27.9236   -8.9357   70.9892 C.2     1  <0>         0.0717
     18 C18        29.6534   -9.0363   64.4683 C.3     1  <0>         0.0885
     19 N1         29.9315  -11.5225   67.2831 N.pl3   1  <0>        -0.3395
     20 N2         28.7651   -9.8499   65.3812 N.am    1  <0>        -0.2591
     21 O1         31.8817   -9.5762   65.4580 O.3     1  <0>        -0.3928
     22 O2         27.5224   -7.8295   64.0353 O.3     1  <0>        -0.3928
     23 O3         28.1739  -10.0056   71.7865 O.co2   1  <0>        -0.5446
     24 O4         27.4243  -11.7419   65.1814 O.2     1  <0>        -0.2752
     25 O5         27.5821   -7.8805   71.4270 O.co2   1  <0>        -0.5446
     26 H1         33.9448  -12.3973   69.4300 H       1  <0>         0.0230
     27 H2         32.4548  -12.8799   70.3094 H       1  <0>         0.0230
     28 H3         33.0448  -13.8694   68.9309 H       1  <0>         0.0230
     29 H4         29.3107  -15.4942   66.7611 H       1  <0>         0.0230
     30 H5         28.8565  -14.7137   68.3138 H       1  <0>         0.0230
     31 H6         28.5439  -13.8699   66.7591 H       1  <0>         0.0230
     32 H7         26.8765   -7.4918   68.8908 H       1  <0>         0.0625
     33 H8         27.2485   -7.8928   66.4538 H       1  <0>         0.0637
     34 H9         29.3721  -10.8784   69.8292 H       1  <0>         0.0643
     35 H10        27.9196  -10.4433   62.5922 H       1  <0>         0.0359
     36 H11        28.8367  -11.9192   62.8873 H       1  <0>         0.0359
     37 H12        30.8012  -10.7156   63.6473 H       1  <0>         0.0292
     38 H13        30.1850   -9.5939   62.4145 H       1  <0>         0.0292
     39 H14        32.0291  -10.9962   68.7891 H       1  <0>         0.0280
     40 H15        32.6262  -11.9975   67.3940 H       1  <0>         0.0280
     41 H16        31.2868  -14.5692   67.9141 H       1  <0>         0.0280
     42 H17        30.9709  -13.7167   66.3434 H       1  <0>         0.0280
     43 H18        31.4589   -7.8102   64.4911 H       1  <0>         0.0579
     44 H19        30.6855   -8.0347   66.1101 H       1  <0>         0.0579
     45 H20        29.3415   -6.8947   64.2337 H       1  <0>         0.0579
     46 H21        29.1030   -7.8581   62.7226 H       1  <0>         0.0579
     47 H22        30.1796  -12.6486   69.0900 H       1  <0>         0.0497
     48 H23        29.3108  -12.0782   66.7299 H       1  <0>         0.1464
     49 H24        32.6635   -9.2129   65.8572 H       1  <0>         0.2095
     50 H25        27.1073   -7.1781   63.4822 H       1  <0>         0.2095
@<TRIPOS>BOND
     1     1     8    1
     2     2     9    1
     3     3     4   ar
     4     3    12   ar
     5     4    13   ar
     6     5    12   ar
     7     5    14   ar
     8     6     7    1
     9     6    15    1
    10     7    18    1
    11     8    16    1
    12     9    16    1
    13    10    18    1
    14    10    21    1
    15    11    18    1
    16    11    22    1
    17    12    17    1
    18    13    14   ar
    19    13    20    1
    20    14    19    1
    21    15    20   am
    22    15    24    2
    23    16    19    1
    24    17    23    1
    25    17    25    2
    26    18    20    1
    27     1    26    1
    28     1    27    1
    29     1    28    1
    30     2    29    1
    31     2    30    1
    32     2    31    1
    33     3    32    1
    34     4    33    1
    35     5    34    1
    36     6    35    1
    37     6    36    1
    38     7    37    1
    39     7    38    1
    40     8    39    1
    41     8    40    1
    42     9    41    1
    43     9    42    1
    44    10    43    1
    45    10    44    1
    46    11    45    1
    47    11    46    1
    48    16    47    1
    49    19    48    1
    50    21    49    1
    51    22    50    1
@<TRIPOS>SUBSTRUCTURE
     1 <0>         1 TEMP              0 ****  ****    0 ROOT

