
##########                                Name:        RA2_468_1B9V
##########                    Molecular_Weight:             349.407
##########                DOCK_Rotatable_Bonds:                  10
##########                       Formal_Charge:             -1.0002
##########                     HBond_Acceptors:                   7
##########                        HBond_Donors:                   3
##########                         Heavy_Atoms:                  25
##########                            HA_RMSDs:              13.367
##########                            HA_RMSDh:              12.770
##########                            HA_RMSDm:              11.683
##########                          Grid_Score:            9.189713
##########                     Grid_vdw_energy:          -15.735439
##########                      Grid_es_energy:           24.925152
##########           Internal_energy_repulsive:           17.499546

@<TRIPOS>MOLECULE
RA2_468_1B9V
 50 51 1 0 0
SMALL
USER_CHARGES


@<TRIPOS>ATOM
      1 C1         25.2891   -0.3273   70.5029 C.3     1  <0>        -0.0636
      2 C2         26.8168   -4.5923   70.6891 C.3     1  <0>        -0.0636
      3 C3         20.1032   -4.9556   71.7938 C.ar    1  <0>        -0.0510
      4 C4         20.6490   -5.6393   70.6713 C.ar    1  <0>        -0.0378
      5 C5         22.1276   -3.6019   71.9458 C.ar    1  <0>        -0.0302
      6 C6         23.8562   -7.4175   67.8115 C.3     1  <0>         0.0266
      7 C7         23.4192   -6.2363   66.9341 C.3     1  <0>        -0.0185
      8 C8         24.3330   -1.5078   70.3220 C.3     1  <0>        -0.0374
      9 C9         26.2866   -3.2043   70.3046 C.3     1  <0>        -0.0374
     10 C10        21.8894   -4.1856   67.2883 C.3     1  <0>         0.0681
     11 C11        20.9254   -6.5361   67.1018 C.3     1  <0>         0.0681
     12 C12        20.8467   -3.9251   72.4328 C.ar    1  <0>        -0.0008
     13 C13        21.9415   -5.3030   70.1776 C.ar    1  <0>         0.0579
     14 C14        22.6911   -4.2689   70.8327 C.ar    1  <0>         0.0497
     15 C15        23.4465   -6.9271   69.1942 C.2     1  <0>         0.2205
     16 C16        24.8576   -2.8885   70.8169 C.3     1  <0>         0.0202
     17 C17        20.2979   -3.1824   73.5937 C.2     1  <0>         0.0717
     18 C18        22.1431   -5.7005   67.6138 C.3     1  <0>         0.0885
     19 N1         23.9447   -3.9524   70.3431 N.pl3   1  <0>        -0.3395
     20 N2         22.4856   -5.9548   69.0637 N.am    1  <0>        -0.2591
     21 O1         23.0921   -3.4206   67.2429 O.3     1  <0>        -0.3928
     22 O2         20.7010   -7.7100   67.8738 O.3     1  <0>        -0.3928
     23 O3         21.1229   -2.2537   74.1412 O.co2   1  <0>        -0.5446
     24 O4         23.9336   -7.3519   70.2338 O.2     1  <0>        -0.2752
     25 O5         19.1998   -3.3853   74.0120 O.co2   1  <0>        -0.5446
     26 H1         24.8167    0.5897   70.1209 H       1  <0>         0.0230
     27 H2         25.5200   -0.2029   71.5712 H       1  <0>         0.0230
     28 H3         26.2185   -0.5198   69.9468 H       1  <0>         0.0230
     29 H4         27.8309   -4.7233   70.2836 H       1  <0>         0.0230
     30 H5         26.8459   -4.6828   71.7850 H       1  <0>         0.0230
     31 H6         26.1535   -5.3657   70.2746 H       1  <0>         0.0230
     32 H7         19.1225   -5.2197   72.1611 H       1  <0>         0.0625
     33 H8         20.0781   -6.4196   70.1899 H       1  <0>         0.0637
     34 H9         22.6951   -2.8240   72.4350 H       1  <0>         0.0643
     35 H10        23.3505   -8.3539   67.5335 H       1  <0>         0.0359
     36 H11        24.9364   -7.6132   67.7409 H       1  <0>         0.0359
     37 H12        24.2005   -5.4633   66.8913 H       1  <0>         0.0292
     38 H13        23.2132   -6.5622   65.9038 H       1  <0>         0.0292
     39 H14        23.4187   -1.2806   70.8899 H       1  <0>         0.0280
     40 H15        24.1256   -1.6012   69.2458 H       1  <0>         0.0280
     41 H16        26.9689   -2.4549   70.7322 H       1  <0>         0.0280
     42 H17        26.2695   -3.1448   69.2063 H       1  <0>         0.0280
     43 H18        21.3993   -4.1195   66.3057 H       1  <0>         0.0579
     44 H19        21.2413   -3.7664   68.0720 H       1  <0>         0.0579
     45 H20        20.0247   -5.9070   67.1567 H       1  <0>         0.0579
     46 H21        21.1230   -6.8367   66.0623 H       1  <0>         0.0579
     47 H22        24.8941   -2.8474   71.9154 H       1  <0>         0.0497
     48 H23        24.4706   -4.7931   70.4720 H       1  <0>         0.1464
     49 H24        22.8784   -2.4974   67.1757 H       1  <0>         0.2095
     50 H25        19.9598   -8.1863   67.5186 H       1  <0>         0.2095
@<TRIPOS>BOND
     1     1     8    1
     2     2     9    1
     3     3     4   ar
     4     3    12   ar
     5     4    13   ar
     6     5    12   ar
     7     5    14   ar
     8     6     7    1
     9     6    15    1
    10     7    18    1
    11     8    16    1
    12     9    16    1
    13    10    18    1
    14    10    21    1
    15    11    18    1
    16    11    22    1
    17    12    17    1
    18    13    14   ar
    19    13    20    1
    20    14    19    1
    21    15    20   am
    22    15    24    2
    23    16    19    1
    24    17    23    1
    25    17    25    2
    26    18    20    1
    27     1    26    1
    28     1    27    1
    29     1    28    1
    30     2    29    1
    31     2    30    1
    32     2    31    1
    33     3    32    1
    34     4    33    1
    35     5    34    1
    36     6    35    1
    37     6    36    1
    38     7    37    1
    39     7    38    1
    40     8    39    1
    41     8    40    1
    42     9    41    1
    43     9    42    1
    44    10    43    1
    45    10    44    1
    46    11    45    1
    47    11    46    1
    48    16    47    1
    49    19    48    1
    50    21    49    1
    51    22    50    1
@<TRIPOS>SUBSTRUCTURE
     1 <0>         1 TEMP              0 ****  ****    0 ROOT

