
##########                                Name:        CQW_999_3CQW
##########                    Molecular_Weight:             274.712
##########                DOCK_Rotatable_Bonds:                   1
##########                       Formal_Charge:         9.99719e-05
##########                     HBond_Acceptors:                   7
##########                        HBond_Donors:                   2
##########                         Heavy_Atoms:                  19
##########                            HA_RMSDs:               0.592
##########                            HA_RMSDh:               0.592
##########                            HA_RMSDm:               0.592
##########                          Grid_Score:          -36.017563
##########                     Grid_vdw_energy:          -34.729580
##########                      Grid_es_energy:           -1.287985
##########           Internal_energy_repulsive:            8.074784

@<TRIPOS>MOLECULE
CQW_999_3CQW
 30 33 1 0 0
SMALL
USER_CHARGES


@<TRIPOS>ATOM
      1 C1          3.2191    1.1292   15.9440 C.2     1  <0>         0.0142
      2 C2          8.9476    2.2823   21.0521 C.2     1  <0>         0.0856
      3 C3          5.0176    5.2852   16.0195 C.ar    1  <0>         0.1202
      4 C4          8.9778    4.2261   17.9419 C.3     1  <0>         0.0070
      5 C5          8.6628    3.5203   16.6037 C.3     1  <0>         0.0194
      6 C6          7.6029    1.6573   17.6998 C.3     1  <0>         0.0533
      7 C7          4.5463    1.1190   16.1556 C.2     1  <0>         0.0685
      8 C8          8.7657    3.3476   19.1375 C.2     1  <0>         0.0627
      9 C9          8.1663    2.1534   19.0093 C.2     1  <0>         0.0478
     10 C10         4.9867    2.5341   16.1940 C.ar    1  <0>         0.0744
     11 C11         3.8249    3.2894   15.9198 C.ar    1  <0>         0.1362
     12 C12         6.1697    3.2766   16.4017 C.ar    1  <0>         0.1353
     13 N1          2.7582    2.4107   15.7949 N.pl3   1  <0>        -0.3037
     14 N2          8.2789    1.4954   20.2145 N.pl3   1  <0>        -0.3061
     15 N3          9.2834    3.4207   20.4128 N.2     1  <0>        -0.2430
     16 N4          3.8686    4.6209   15.8368 N.ar    1  <0>        -0.2199
     17 N5          6.1374    4.6080   16.2648 N.ar    1  <0>        -0.2200
     18 N6          7.4310    2.6977   16.6587 N.pl3   1  <0>        -0.3086
     19 Cl1         5.4934   -0.3300   16.3507 Cl      1  <0>        -0.0814
     20 H1          2.5994    0.2459   15.8978 H       1  <0>         0.0797
     21 H2          9.1838    2.0472   22.0794 H       1  <0>         0.1000
     22 H3          5.0355    6.3638   15.9680 H       1  <0>         0.1048
     23 H4         10.0326    4.5381   17.9266 H       1  <0>         0.0344
     24 H5          8.3158    5.0996   18.0347 H       1  <0>         0.0344
     25 H6          8.5296    4.2905   15.8297 H       1  <0>         0.0468
     26 H7          9.5073    2.8616   16.3531 H       1  <0>         0.0468
     27 H8          8.2952    0.8998   17.3039 H       1  <0>         0.0527
     28 H9          6.6133    1.2233   17.9050 H       1  <0>         0.0527
     29 H10         1.8078    2.6705   15.6238 H       1  <0>         0.1531
     30 H11         7.9204    0.5854   20.4229 H       1  <0>         0.1528
@<TRIPOS>BOND
     1     1     7    2
     2     1    13    1
     3     2    14    1
     4     2    15    2
     5     3    16   ar
     6     3    17   ar
     7     4     5    1
     8     4     8    1
     9     5    18    1
    10     6     9    1
    11     6    18    1
    12     7    10    1
    13     7    19    1
    14     8     9    2
    15     8    15    1
    16     9    14    1
    17    10    11   ar
    18    10    12   ar
    19    11    13    1
    20    11    16   ar
    21    12    17   ar
    22    12    18    1
    23     1    20    1
    24     2    21    1
    25     3    22    1
    26     4    23    1
    27     4    24    1
    28     5    25    1
    29     5    26    1
    30     6    27    1
    31     6    28    1
    32    13    29    1
    33    14    30    1
@<TRIPOS>SUBSTRUCTURE
     1 <0>         1 TEMP              0 ****  ****    0 ROOT

