
##########                                Name:          9JZ_1_3HL5
##########                    Molecular_Weight:             507.656
##########                DOCK_Rotatable_Bonds:                  11
##########                       Formal_Charge:              0.9998
##########                     HBond_Acceptors:                   9
##########                        HBond_Donors:                   4
##########                         Heavy_Atoms:                  37
##########                            HA_RMSDs:               0.934
##########                            HA_RMSDh:               0.934
##########                            HA_RMSDm:               0.889
##########                          Grid_Score:          -77.351334
##########                     Grid_vdw_energy:          -29.757843
##########                      Grid_es_energy:          -47.593487
##########           Internal_energy_repulsive:           22.998285

@<TRIPOS>MOLECULE
9JZ_1_3HL5
 76 79 1 0 0
SMALL
USER_CHARGES


@<TRIPOS>ATOM
      1 C1          7.4437    7.8623  -20.2791 C.3     1  <0>        -0.0602
      2 C2          8.6636   16.9726  -18.0678 C.3     1  <0>        -0.0130
      3 C3          7.8665   18.2576  -21.5744 C.3     1  <0>        -0.0441
      4 C4         13.7750    8.7957  -24.2706 C.ar    1  <0>        -0.0610
      5 C5         13.8147    9.4086  -23.0208 C.ar    1  <0>        -0.0600
      6 C6          7.7705    8.3373  -26.4162 C.ar    1  <0>        -0.0254
      7 C7         12.5513    8.5908  -24.9018 C.ar    1  <0>        -0.0493
      8 C8         12.6346    9.8233  -22.4108 C.ar    1  <0>        -0.0398
      9 C9          8.0066    9.5660  -25.8021 C.ar    1  <0>         0.0314
     10 C10         8.7328    7.3370  -26.3126 C.ar    1  <0>         0.0314
     11 C11         8.9429   14.8271  -25.8191 C.3     1  <0>        -0.0530
     12 C12         7.5145   14.4898  -25.3816 C.3     1  <0>        -0.0527
     13 C13         9.9755   14.0066  -25.0412 C.3     1  <0>        -0.0527
     14 C14         7.3416   14.6852  -23.8765 C.3     1  <0>        -0.0481
     15 C15         9.7810   14.1260  -23.5249 C.3     1  <0>        -0.0481
     16 C16         6.2962    9.8347  -21.4013 C.3     1  <0>        -0.0324
     17 C17         6.7602   11.2139  -21.8424 C.3     1  <0>         0.0158
     18 C18        11.3609    9.0038  -24.2942 C.ar    1  <0>         0.0403
     19 C19        11.4014    9.6339  -23.0460 C.ar    1  <0>         0.0442
     20 C20        10.0821    8.7714  -25.0294 C.ar    1  <0>         0.1615
     21 C21         7.5878    9.0906  -21.1702 C.3     1  <0>        -0.0153
     22 C22         8.3347   13.8052  -23.1101 C.3     1  <0>        -0.0141
     23 C23         8.5659   10.1332  -20.6340 C.3     1  <0>         0.1051
     24 C24         8.6909   16.9571  -19.5933 C.3     1  <0>         0.0518
     25 C25         8.0854   13.7952  -21.5874 C.3     1  <0>         0.1025
     26 C26         9.9111    9.7258  -21.1534 C.2     1  <0>         0.2380
     27 C27         7.9796   15.7345  -20.0925 C.2     1  <0>         0.2615
     28 C28         8.7078   12.5584  -20.9928 C.2     1  <0>         0.2368
     29 N1          9.1539    9.7600  -25.1294 N.ar    1  <0>        -0.2356
     30 N2          9.8653    7.5719  -25.6318 N.ar    1  <0>        -0.2356
     31 N3          8.1077   18.1724  -20.1442 N.4     1  <0>         0.2334
     32 N4         10.1965   10.0120  -22.4329 N.am    1  <0>        -0.2833
     33 N5          8.6345   15.0150  -21.0022 N.am    1  <0>        -0.2991
     34 N6          8.0487   11.4016  -21.1603 N.am    1  <0>        -0.2881
     35 O1         10.6744    9.1493  -20.3954 O.2     1  <0>        -0.2734
     36 O2          6.8553   15.4638  -19.6861 O.2     1  <0>        -0.2696
     37 O3          9.7802   12.6436  -20.4052 O.2     1  <0>        -0.2735
     38 H1          8.4241    7.3780  -20.1600 H       1  <0>         0.0233
     39 H2          7.0635    8.1675  -19.2931 H       1  <0>         0.0233
     40 H3          6.7392    7.1550  -20.7411 H       1  <0>         0.0233
     41 H4          9.1849   17.8687  -17.7002 H       1  <0>         0.0289
     42 H5          7.6201   16.9873  -17.7201 H       1  <0>         0.0289
     43 H6          9.1658   16.0728  -17.6831 H       1  <0>         0.0289
     44 H7          7.4261   19.2364  -21.8149 H       1  <0>         0.0777
     45 H8          8.8180   18.1413  -22.1140 H       1  <0>         0.0777
     46 H9          7.1731   17.4593  -21.8773 H       1  <0>         0.0777
     47 H10        14.6907    8.4802  -24.7486 H       1  <0>         0.0618
     48 H11        14.7617    9.5622  -22.5246 H       1  <0>         0.0618
     49 H12         6.8557    8.1643  -26.9635 H       1  <0>         0.0648
     50 H13        12.5208    8.1095  -25.8681 H       1  <0>         0.0625
     51 H14        12.6704   10.2949  -21.4399 H       1  <0>         0.0636
     52 H15         7.2732   10.3562  -25.8663 H       1  <0>         0.0831
     53 H16         8.5689    6.3762  -26.7779 H       1  <0>         0.0831
     54 H17         9.0475   14.6042  -26.8912 H       1  <0>         0.0265
     55 H18         9.1274   15.8958  -25.6349 H       1  <0>         0.0265
     56 H19         6.8131   15.1517  -25.9107 H       1  <0>         0.0265
     57 H20         7.3026   13.4399  -25.6323 H       1  <0>         0.0265
     58 H21         9.8715   12.9494  -25.3267 H       1  <0>         0.0265
     59 H22        10.9806   14.3738  -25.2965 H       1  <0>         0.0265
     60 H23         7.5240   15.7404  -23.6250 H       1  <0>         0.0269
     61 H24         6.3163   14.4072  -23.5908 H       1  <0>         0.0269
     62 H25        10.4574   13.4170  -23.0250 H       1  <0>         0.0269
     63 H26        10.0163   15.1559  -23.2185 H       1  <0>         0.0269
     64 H27         5.6894    9.8859  -20.4853 H       1  <0>         0.0284
     65 H28         5.6819    9.3484  -22.1736 H       1  <0>         0.0284
     66 H29         6.8777   11.2634  -22.9351 H       1  <0>         0.0465
     67 H30         6.0377   11.9895  -21.5484 H       1  <0>         0.0465
     68 H31         7.9587    8.6475  -22.1062 H       1  <0>         0.0321
     69 H32         8.1589   12.7595  -23.4025 H       1  <0>         0.0323
     70 H33         8.6646   10.2266  -19.5425 H       1  <0>         0.0599
     71 H34         9.7370   16.9224  -19.9317 H       1  <0>         0.0946
     72 H35         7.0073   13.7711  -21.3703 H       1  <0>         0.0597
     73 H36         8.7397   18.9144  -19.9206 H       1  <0>         0.2018
     74 H37         7.2179   18.2833  -19.7015 H       1  <0>         0.2018
     75 H38         9.5222   10.5161  -22.9726 H       1  <0>         0.1549
     76 H39         9.5392   15.3228  -21.2965 H       1  <0>         0.1496
@<TRIPOS>BOND
     1     1    21    1
     2     2    24    1
     3     3    31    1
     4     4     5   ar
     5     4     7   ar
     6     5     8   ar
     7     6     9   ar
     8     6    10   ar
     9     7    18   ar
    10     8    19   ar
    11     9    29   ar
    12    10    30   ar
    13    11    12    1
    14    11    13    1
    15    12    14    1
    16    13    15    1
    17    14    22    1
    18    15    22    1
    19    16    17    1
    20    16    21    1
    21    17    34    1
    22    18    19   ar
    23    18    20    1
    24    19    32    1
    25    20    29   ar
    26    20    30   ar
    27    21    23    1
    28    22    25    1
    29    23    26    1
    30    23    34    1
    31    24    27    1
    32    24    31    1
    33    25    28    1
    34    25    33    1
    35    26    32   am
    36    26    35    2
    37    27    33   am
    38    27    36    2
    39    28    34   am
    40    28    37    2
    41     1    38    1
    42     1    39    1
    43     1    40    1
    44     2    41    1
    45     2    42    1
    46     2    43    1
    47     3    44    1
    48     3    45    1
    49     3    46    1
    50     4    47    1
    51     5    48    1
    52     6    49    1
    53     7    50    1
    54     8    51    1
    55     9    52    1
    56    10    53    1
    57    11    54    1
    58    11    55    1
    59    12    56    1
    60    12    57    1
    61    13    58    1
    62    13    59    1
    63    14    60    1
    64    14    61    1
    65    15    62    1
    66    15    63    1
    67    16    64    1
    68    16    65    1
    69    17    66    1
    70    17    67    1
    71    21    68    1
    72    22    69    1
    73    23    70    1
    74    24    71    1
    75    25    72    1
    76    31    73    1
    77    31    74    1
    78    32    75    1
    79    33    76    1
@<TRIPOS>SUBSTRUCTURE
     1 <0>         1 TEMP              0 ****  ****    0 ROOT

