
##########                                Name:          9JZ_1_3HL5
##########                    Molecular_Weight:             507.656
##########                DOCK_Rotatable_Bonds:                  11
##########                       Formal_Charge:              0.9998
##########                     HBond_Acceptors:                   9
##########                        HBond_Donors:                   4
##########                         Heavy_Atoms:                  37
##########                            HA_RMSDs:               1.438
##########                            HA_RMSDh:               1.438
##########                            HA_RMSDm:               1.261
##########                          Grid_Score:          -77.304024
##########                     Grid_vdw_energy:          -37.718502
##########                      Grid_es_energy:          -39.585522
##########           Internal_energy_repulsive:           31.873081

@<TRIPOS>MOLECULE
9JZ_1_3HL5
 76 79 1 0 0
SMALL
USER_CHARGES


@<TRIPOS>ATOM
      1 C1          6.5452    7.6748  -19.9899 C.3     1  <0>        -0.0602
      2 C2          8.0912   17.1563  -19.5623 C.3     1  <0>        -0.0130
      3 C3          9.3099   18.2695  -22.9973 C.3     1  <0>        -0.0441
      4 C4         13.9518    7.6183  -20.7516 C.ar    1  <0>        -0.0610
      5 C5         13.4194    8.2977  -19.6586 C.ar    1  <0>        -0.0600
      6 C6          9.8052    7.4788  -25.6149 C.ar    1  <0>        -0.0254
      7 C7         13.1941    7.4706  -21.9099 C.ar    1  <0>        -0.0493
      8 C8         12.1377    8.8350  -19.7297 C.ar    1  <0>        -0.0398
      9 C9         10.1253    8.7595  -25.1677 C.ar    1  <0>         0.0314
     10 C10        10.1834    6.3828  -24.8447 C.ar    1  <0>         0.0314
     11 C11        10.4021   13.3566  -25.5769 C.3     1  <0>        -0.0530
     12 C12         8.9575   12.8502  -25.5294 C.3     1  <0>        -0.0527
     13 C13        11.1623   13.0024  -24.2958 C.3     1  <0>        -0.0527
     14 C14         8.2285   13.3870  -24.2990 C.3     1  <0>        -0.0481
     15 C15        10.4174   13.4659  -23.0382 C.3     1  <0>        -0.0481
     16 C16         6.1916    9.4281  -21.7975 C.3     1  <0>        -0.0324
     17 C17         6.9129   10.7114  -22.1781 C.3     1  <0>         0.0158
     18 C18        11.9044    8.0069  -21.9881 C.ar    1  <0>         0.0403
     19 C19        11.3752    8.7032  -20.8965 C.ar    1  <0>         0.0442
     20 C20        11.1486    7.8299  -23.2638 C.ar    1  <0>         0.1615
     21 C21         7.1745    8.7330  -20.8886 C.3     1  <0>        -0.0153
     22 C22         8.9627   12.9654  -23.0219 C.3     1  <0>        -0.0141
     23 C23         7.8827    9.8508  -20.1269 C.3     1  <0>         0.1051
     24 C24         8.7152   16.9607  -20.9409 C.3     1  <0>         0.0518
     25 C25         8.1788   13.2970  -21.7349 C.3     1  <0>         0.1025
     26 C26         9.2801    9.3594  -19.9008 C.2     1  <0>         0.2380
     27 C27         8.1246   15.7429  -21.5874 C.2     1  <0>         0.2615
     28 C28         8.3637   12.1791  -20.7416 C.2     1  <0>         0.2368
     29 N1         10.7920    8.9090  -24.0103 N.ar    1  <0>        -0.2356
     30 N2         10.8485    6.5758  -23.6951 N.ar    1  <0>        -0.2356
     31 N3          8.5376   18.1423  -21.7733 N.4     1  <0>         0.2334
     32 N4         10.0671    9.2061  -20.9768 N.am    1  <0>        -0.2833
     33 N5          8.6423   14.5764  -21.2058 N.am    1  <0>        -0.2991
     34 N6          7.7626   11.0114  -21.0168 N.am    1  <0>        -0.2881
     35 O1          9.6305    9.1155  -18.7574 O.2     1  <0>        -0.2734
     36 O2          7.2422   15.8565  -22.4306 O.2     1  <0>        -0.2696
     37 O3          9.0563   12.3622  -19.7470 O.2     1  <0>        -0.2735
     38 H1          7.3233    7.2169  -19.3614 H       1  <0>         0.0233
     39 H2          5.7850    8.1441  -19.3482 H       1  <0>         0.0233
     40 H3          6.0730    6.8998  -20.6115 H       1  <0>         0.0233
     41 H4          8.5234   18.0492  -19.0869 H       1  <0>         0.0289
     42 H5          7.0041   17.2870  -19.6672 H       1  <0>         0.0289
     43 H6          8.2961   16.2737  -18.9387 H       1  <0>         0.0289
     44 H7          9.0523   19.2147  -23.4975 H       1  <0>         0.0777
     45 H8         10.3830   18.2633  -22.7559 H       1  <0>         0.0777
     46 H9          9.0793   17.4266  -23.6654 H       1  <0>         0.0777
     47 H10        14.9493    7.2074  -20.7006 H       1  <0>         0.0618
     48 H11        14.0015    8.4076  -18.7555 H       1  <0>         0.0618
     49 H12         9.2725    7.3392  -26.5438 H       1  <0>         0.0648
     50 H13        13.6051    6.9380  -22.7547 H       1  <0>         0.0625
     51 H14        11.7280    9.3578  -18.8780 H       1  <0>         0.0636
     52 H15         9.8396    9.6252  -25.7467 H       1  <0>         0.0831
     53 H16         9.9428    5.3817  -25.1707 H       1  <0>         0.0831
     54 H17        10.9131   12.8915  -26.4327 H       1  <0>         0.0265
     55 H18        10.3909   14.4506  -25.6918 H       1  <0>         0.0265
     56 H19         8.4302   13.1891  -26.4333 H       1  <0>         0.0265
     57 H20         8.9655   11.7510  -25.4887 H       1  <0>         0.0265
     58 H21        11.2835   11.9101  -24.2499 H       1  <0>         0.0265
     59 H22        12.1456   13.4948  -24.3233 H       1  <0>         0.0265
     60 H23         8.1924   14.4852  -24.3500 H       1  <0>         0.0269
     61 H24         7.2058   12.9823  -24.2789 H       1  <0>         0.0269
     62 H25        10.9373   13.0698  -22.1535 H       1  <0>         0.0269
     63 H26        10.4129   14.5657  -23.0154 H       1  <0>         0.0269
     64 H27         5.2417    9.6354  -21.2829 H       1  <0>         0.0284
     65 H28         5.9576    8.8179  -22.6824 H       1  <0>         0.0284
     66 H29         7.5164   10.5737  -23.0875 H       1  <0>         0.0465
     67 H30         6.1998   11.5265  -22.3704 H       1  <0>         0.0465
     68 H31         7.8929    8.1364  -21.4700 H       1  <0>         0.0321
     69 H32         9.0189   11.8669  -23.0084 H       1  <0>         0.0323
     70 H33         7.4830   10.1289  -19.1405 H       1  <0>         0.0599
     71 H34         9.7988   16.8110  -20.8248 H       1  <0>         0.0946
     72 H35         7.1035   13.3882  -21.9476 H       1  <0>         0.0597
     73 H36         8.7815   18.9272  -21.2037 H       1  <0>         0.2018
     74 H37         7.5753   18.1530  -22.0451 H       1  <0>         0.2018
     75 H38         9.7063    9.4610  -21.8740 H       1  <0>         0.1549
     76 H39         9.3786   14.5770  -20.5291 H       1  <0>         0.1496
@<TRIPOS>BOND
     1     1    21    1
     2     2    24    1
     3     3    31    1
     4     4     5   ar
     5     4     7   ar
     6     5     8   ar
     7     6     9   ar
     8     6    10   ar
     9     7    18   ar
    10     8    19   ar
    11     9    29   ar
    12    10    30   ar
    13    11    12    1
    14    11    13    1
    15    12    14    1
    16    13    15    1
    17    14    22    1
    18    15    22    1
    19    16    17    1
    20    16    21    1
    21    17    34    1
    22    18    19   ar
    23    18    20    1
    24    19    32    1
    25    20    29   ar
    26    20    30   ar
    27    21    23    1
    28    22    25    1
    29    23    26    1
    30    23    34    1
    31    24    27    1
    32    24    31    1
    33    25    28    1
    34    25    33    1
    35    26    32   am
    36    26    35    2
    37    27    33   am
    38    27    36    2
    39    28    34   am
    40    28    37    2
    41     1    38    1
    42     1    39    1
    43     1    40    1
    44     2    41    1
    45     2    42    1
    46     2    43    1
    47     3    44    1
    48     3    45    1
    49     3    46    1
    50     4    47    1
    51     5    48    1
    52     6    49    1
    53     7    50    1
    54     8    51    1
    55     9    52    1
    56    10    53    1
    57    11    54    1
    58    11    55    1
    59    12    56    1
    60    12    57    1
    61    13    58    1
    62    13    59    1
    63    14    60    1
    64    14    61    1
    65    15    62    1
    66    15    63    1
    67    16    64    1
    68    16    65    1
    69    17    66    1
    70    17    67    1
    71    21    68    1
    72    22    69    1
    73    23    70    1
    74    24    71    1
    75    25    72    1
    76    31    73    1
    77    31    74    1
    78    32    75    1
    79    33    76    1
@<TRIPOS>SUBSTRUCTURE
     1 <0>         1 TEMP              0 ****  ****    0 ROOT

