
##########                                Name:          9JZ_1_3HL5
##########                    Molecular_Weight:             507.656
##########                DOCK_Rotatable_Bonds:                  11
##########                       Formal_Charge:              0.9998
##########                     HBond_Acceptors:                   9
##########                        HBond_Donors:                   4
##########                         Heavy_Atoms:                  37
##########                            HA_RMSDs:               0.679
##########                            HA_RMSDh:               0.679
##########                            HA_RMSDm:               0.631
##########                          Grid_Score:          -90.469757
##########                     Grid_vdw_energy:          -41.241795
##########                      Grid_es_energy:          -49.227966
##########           Internal_energy_repulsive:           27.549694

@<TRIPOS>MOLECULE
9JZ_1_3HL5
 76 79 1 0 0
SMALL
USER_CHARGES


@<TRIPOS>ATOM
      1 C1          7.0879    7.6407  -19.9554 C.3     1  <0>        -0.0602
      2 C2          8.2945   16.7551  -18.2685 C.3     1  <0>        -0.0130
      3 C3          8.0056   18.7118  -21.5400 C.3     1  <0>        -0.0441
      4 C4         14.1402    8.0299  -22.3645 C.ar    1  <0>        -0.0610
      5 C5         13.9388    8.8104  -21.2288 C.ar    1  <0>        -0.0600
      6 C6          8.6893    7.2622  -25.6170 C.ar    1  <0>        -0.0254
      7 C7         13.0665    7.7336  -23.1993 C.ar    1  <0>        -0.0493
      8 C8         12.6694    9.2998  -20.9365 C.ar    1  <0>        -0.0398
      9 C9          8.6507    8.4556  -24.8980 C.ar    1  <0>         0.0314
     10 C10         9.7598    6.3939  -25.4231 C.ar    1  <0>         0.0314
     11 C11        10.0621   14.4608  -25.1398 C.3     1  <0>        -0.0530
     12 C12         8.6199   13.9519  -25.0597 C.3     1  <0>        -0.0527
     13 C13        10.9418   13.8233  -24.0608 C.3     1  <0>        -0.0527
     14 C14         8.0316   14.1877  -23.6699 C.3     1  <0>        -0.0481
     15 C15        10.3390   13.9815  -22.6598 C.3     1  <0>        -0.0481
     16 C16         6.3152    9.6120  -21.3638 C.3     1  <0>        -0.0324
     17 C17         6.9218   10.9622  -21.7116 C.3     1  <0>         0.0158
     18 C18        11.7873    8.2210  -22.9111 C.ar    1  <0>         0.0403
     19 C19        11.5874    9.0183  -21.7793 C.ar    1  <0>         0.0442
     20 C20        10.6801    7.8827  -23.8543 C.ar    1  <0>         0.1615
     21 C21         7.4859    8.8362  -20.8132 C.3     1  <0>        -0.0153
     22 C22         8.8837   13.4855  -22.6075 C.3     1  <0>        -0.0141
     23 C23         8.3456    9.8644  -20.0817 C.3     1  <0>         0.1051
     24 C24         8.4736   17.0029  -19.7635 C.3     1  <0>         0.0518
     25 C25         8.2423   13.5084  -21.2042 C.3     1  <0>         0.1025
     26 C26         9.7599    9.4004  -20.2543 C.2     1  <0>         0.2380
     27 C27         7.9145   15.8424  -20.5319 C.2     1  <0>         0.2615
     28 C28         8.6585   12.2720  -20.4502 C.2     1  <0>         0.2368
     29 N1          9.6441    8.7437  -24.0399 N.ar    1  <0>        -0.2356
     30 N2         10.7316    6.7197  -24.5567 N.ar    1  <0>        -0.2356
     31 N3          7.8528   18.2562  -20.1689 N.4     1  <0>         0.2334
     32 N4         10.2921    9.4718  -21.4840 N.am    1  <0>        -0.2833
     33 N5          8.6451   14.7289  -20.5114 N.am    1  <0>        -0.2991
     34 N6          8.0162   11.1313  -20.7449 N.am    1  <0>        -0.2881
     35 O1         10.3531    8.9744  -19.2765 O.2     1  <0>        -0.2734
     36 O2          6.8629   15.9592  -21.1507 O.2     1  <0>        -0.2696
     37 O3          9.5620   12.3423  -19.6249 O.2     1  <0>        -0.2735
     38 H1          7.9929    7.1306  -19.5939 H       1  <0>         0.0233
     39 H2          6.4948    7.9874  -19.0963 H       1  <0>         0.0233
     40 H3          6.4884    6.9415  -20.5568 H       1  <0>         0.0233
     41 H4          8.7041   17.6054  -17.7037 H       1  <0>         0.0289
     42 H5          7.2240   16.6454  -18.0409 H       1  <0>         0.0289
     43 H6          8.8263   15.8354  -17.9832 H       1  <0>         0.0289
     44 H7          7.4770   19.6676  -21.6705 H       1  <0>         0.0777
     45 H8          9.0738   18.8504  -21.7632 H       1  <0>         0.0777
     46 H9          7.5820   17.9623  -22.2246 H       1  <0>         0.0777
     47 H10        15.1264    7.6557  -22.5967 H       1  <0>         0.0618
     48 H11        14.7681    9.0359  -20.5747 H       1  <0>         0.0618
     49 H12         7.9015    7.0153  -26.3131 H       1  <0>         0.0648
     50 H13        13.2222    7.1228  -24.0762 H       1  <0>         0.0625
     51 H14        12.5176    9.9016  -20.0526 H       1  <0>         0.0636
     52 H15         7.8287    9.1436  -25.0295 H       1  <0>         0.0831
     53 H16         9.8081    5.4622  -25.9673 H       1  <0>         0.0831
     54 H17        10.4734   14.2074  -26.1281 H       1  <0>         0.0265
     55 H18        10.0617   15.5516  -24.9984 H       1  <0>         0.0265
     56 H19         8.0100   14.4883  -25.8016 H       1  <0>         0.0265
     57 H20         8.6093   12.8729  -25.2738 H       1  <0>         0.0265
     58 H21        11.0446   12.7503  -24.2800 H       1  <0>         0.0265
     59 H22        11.9271   14.3122  -24.0767 H       1  <0>         0.0265
     60 H23         8.0131   15.2679  -23.4631 H       1  <0>         0.0269
     61 H24         7.0082   13.7857  -23.6369 H       1  <0>         0.0269
     62 H25        10.9383   13.3938  -21.9489 H       1  <0>         0.0269
     63 H26        10.3595   15.0463  -22.3845 H       1  <0>         0.0269
     64 H27         5.5096    9.7097  -20.6212 H       1  <0>         0.0284
     65 H28         5.8856    9.1213  -22.2496 H       1  <0>         0.0284
     66 H29         7.2985   10.9747  -22.7450 H       1  <0>         0.0465
     67 H30         6.1792   11.7682  -21.6167 H       1  <0>         0.0465
     68 H31         8.0529    8.3536  -21.6229 H       1  <0>         0.0321
     69 H32         8.9183   12.4137  -22.8527 H       1  <0>         0.0323
     70 H33         8.1841    9.9880  -19.0007 H       1  <0>         0.0599
     71 H34         9.5474   17.0914  -19.9850 H       1  <0>         0.0946
     72 H35         7.1449   13.5079  -21.2785 H       1  <0>         0.0597
     73 H36         8.2508   18.9678  -19.5898 H       1  <0>         0.2018
     74 H37         6.8706   18.1461  -20.0166 H       1  <0>         0.2018
     75 H38         9.7427    9.8648  -22.2213 H       1  <0>         0.1549
     76 H39         9.5048   14.7287  -20.0005 H       1  <0>         0.1496
@<TRIPOS>BOND
     1     1    21    1
     2     2    24    1
     3     3    31    1
     4     4     5   ar
     5     4     7   ar
     6     5     8   ar
     7     6     9   ar
     8     6    10   ar
     9     7    18   ar
    10     8    19   ar
    11     9    29   ar
    12    10    30   ar
    13    11    12    1
    14    11    13    1
    15    12    14    1
    16    13    15    1
    17    14    22    1
    18    15    22    1
    19    16    17    1
    20    16    21    1
    21    17    34    1
    22    18    19   ar
    23    18    20    1
    24    19    32    1
    25    20    29   ar
    26    20    30   ar
    27    21    23    1
    28    22    25    1
    29    23    26    1
    30    23    34    1
    31    24    27    1
    32    24    31    1
    33    25    28    1
    34    25    33    1
    35    26    32   am
    36    26    35    2
    37    27    33   am
    38    27    36    2
    39    28    34   am
    40    28    37    2
    41     1    38    1
    42     1    39    1
    43     1    40    1
    44     2    41    1
    45     2    42    1
    46     2    43    1
    47     3    44    1
    48     3    45    1
    49     3    46    1
    50     4    47    1
    51     5    48    1
    52     6    49    1
    53     7    50    1
    54     8    51    1
    55     9    52    1
    56    10    53    1
    57    11    54    1
    58    11    55    1
    59    12    56    1
    60    12    57    1
    61    13    58    1
    62    13    59    1
    63    14    60    1
    64    14    61    1
    65    15    62    1
    66    15    63    1
    67    16    64    1
    68    16    65    1
    69    17    66    1
    70    17    67    1
    71    21    68    1
    72    22    69    1
    73    23    70    1
    74    24    71    1
    75    25    72    1
    76    31    73    1
    77    31    74    1
    78    32    75    1
    79    33    76    1
@<TRIPOS>SUBSTRUCTURE
     1 <0>         1 TEMP              0 ****  ****    0 ROOT

