
##########                                Name:          9JZ_1_3HL5
##########                    Molecular_Weight:             507.656
##########                DOCK_Rotatable_Bonds:                  11
##########                       Formal_Charge:              0.9998
##########                     HBond_Acceptors:                   9
##########                        HBond_Donors:                   4
##########                         Heavy_Atoms:                  37
##########                            HA_RMSDs:               0.627
##########                            HA_RMSDh:               0.627
##########                            HA_RMSDm:               0.600
##########                          Grid_Score:          -85.938042
##########                     Grid_vdw_energy:          -37.474209
##########                      Grid_es_energy:          -48.463833
##########           Internal_energy_repulsive:           28.158638

@<TRIPOS>MOLECULE
9JZ_1_3HL5
 76 79 1 0 0
SMALL
USER_CHARGES


@<TRIPOS>ATOM
      1 C1          6.7803    7.7186  -19.8754 C.3     1  <0>        -0.0602
      2 C2          8.2317   16.6863  -18.3452 C.3     1  <0>        -0.0130
      3 C3          8.3883   18.6934  -21.5833 C.3     1  <0>        -0.0441
      4 C4         13.9552    7.6991  -22.2095 C.ar    1  <0>        -0.0610
      5 C5         13.7171    8.2758  -20.9644 C.ar    1  <0>        -0.0600
      6 C6          8.8228    8.1979  -25.9894 C.ar    1  <0>        -0.0254
      7 C7         12.9496    7.6921  -23.1720 C.ar    1  <0>        -0.0493
      8 C8         12.4805    8.8516  -20.6888 C.ar    1  <0>        -0.0398
      9 C9          8.8717    9.2676  -25.0973 C.ar    1  <0>         0.0314
     10 C10         9.7330    7.1554  -25.8407 C.ar    1  <0>         0.0314
     11 C11        10.9831   14.1859  -24.8420 C.3     1  <0>        -0.0530
     12 C12         9.4616   14.3161  -24.9579 C.3     1  <0>        -0.0527
     13 C13        11.3775   13.0702  -23.8703 C.3     1  <0>        -0.0527
     14 C14         8.8244   14.5388  -23.5876 C.3     1  <0>        -0.0481
     15 C15        10.6948   13.2276  -22.5063 C.3     1  <0>        -0.0481
     16 C16         6.1748    9.6937  -21.3582 C.3     1  <0>        -0.0324
     17 C17         6.8876   10.9797  -21.7456 C.3     1  <0>         0.0158
     18 C18        11.7036    8.2677  -22.9016 C.ar    1  <0>         0.0403
     19 C19        11.4691    8.8613  -21.6569 C.ar    1  <0>         0.0442
     20 C20        10.6720    8.2436  -23.9810 C.ar    1  <0>         0.1615
     21 C21         7.2770    8.8488  -20.7694 C.3     1  <0>        -0.0153
     22 C22         9.1704   13.3794  -22.6474 C.3     1  <0>        -0.0141
     23 C23         8.2088    9.8319  -20.0646 C.3     1  <0>         0.1051
     24 C24         8.5355   16.9110  -19.8236 C.3     1  <0>         0.0518
     25 C25         8.3991   13.4315  -21.3120 C.3     1  <0>         0.1025
     26 C26         9.5838    9.2535  -20.2067 C.2     1  <0>         0.2380
     27 C27         8.0163   15.7517  -20.6213 C.2     1  <0>         0.2615
     28 C28         8.7117   12.1935  -20.5119 C.2     1  <0>         0.2368
     29 N1          9.7938    9.2725  -24.1196 N.ar    1  <0>        -0.2356
     30 N2         10.6383    7.1992  -24.8509 N.ar    1  <0>        -0.2356
     31 N3          7.9754   18.1709  -20.2921 N.4     1  <0>         0.2334
     32 N4         10.2030    9.4046  -21.3874 N.am    1  <0>        -0.2833
     33 N5          8.7633   14.6493  -20.5935 N.am    1  <0>        -0.2991
     34 N6          7.9845   11.0967  -20.7741 N.am    1  <0>        -0.2881
     35 O1         10.0680    8.6691  -19.2509 O.2     1  <0>        -0.2734
     36 O2          6.9807   15.8603  -21.2680 O.2     1  <0>        -0.2696
     37 O3          9.6116   12.2220  -19.6802 O.2     1  <0>        -0.2735
     38 H1          7.6399    7.1525  -19.4874 H       1  <0>         0.0233
     39 H2          6.2096    8.1401  -19.0348 H       1  <0>         0.0233
     40 H3          6.1327    7.0475  -20.4587 H       1  <0>         0.0233
     41 H4          8.6120   17.5358  -17.7589 H       1  <0>         0.0289
     42 H5          7.1443   16.6007  -18.2035 H       1  <0>         0.0289
     43 H6          8.7197   15.7602  -18.0074 H       1  <0>         0.0289
     44 H7          7.8711   19.6448  -21.7770 H       1  <0>         0.0777
     45 H8          9.4754   18.8613  -21.5801 H       1  <0>         0.0777
     46 H9          8.1312   17.9697  -22.3708 H       1  <0>         0.0777
     47 H10        14.9169    7.2587  -22.4275 H       1  <0>         0.0618
     48 H11        14.4924    8.2763  -20.2125 H       1  <0>         0.0618
     49 H12         8.0907    8.1783  -26.7831 H       1  <0>         0.0648
     50 H13        13.1328    7.2388  -24.1350 H       1  <0>         0.0625
     51 H14        12.2996    9.2943  -19.7204 H       1  <0>         0.0636
     52 H15         8.1737   10.0865  -25.1910 H       1  <0>         0.0831
     53 H16         9.7109    6.3150  -26.5188 H       1  <0>         0.0831
     54 H17        11.3960   13.9539  -25.8349 H       1  <0>         0.0265
     55 H18        11.3937   15.1379  -24.4745 H       1  <0>         0.0265
     56 H19         9.2247   15.1731  -25.6056 H       1  <0>         0.0265
     57 H20         9.0561   13.3915  -25.3945 H       1  <0>         0.0265
     58 H21        11.0779   12.1046  -24.3038 H       1  <0>         0.0265
     59 H22        12.4672   13.1011  -23.7235 H       1  <0>         0.0265
     60 H23         9.2050   15.4779  -23.1596 H       1  <0>         0.0269
     61 H24         7.7319   14.5986  -23.7017 H       1  <0>         0.0269
     62 H25        10.9063   12.3344  -21.9002 H       1  <0>         0.0269
     63 H26        11.0951   14.1253  -22.0123 H       1  <0>         0.0269
     64 H27         5.3736    9.8796  -20.6277 H       1  <0>         0.0284
     65 H28         5.7148    9.2074  -22.2311 H       1  <0>         0.0284
     66 H29         7.2720   10.9268  -22.7750 H       1  <0>         0.0465
     67 H30         6.2096   11.8438  -21.6860 H       1  <0>         0.0465
     68 H31         7.8108    8.2956  -21.5562 H       1  <0>         0.0321
     69 H32         8.8132   12.4477  -23.1101 H       1  <0>         0.0323
     70 H33         8.0493   10.0053  -18.9902 H       1  <0>         0.0599
     71 H34         9.6253   16.9755  -19.9587 H       1  <0>         0.0946
     72 H35         7.3140   13.4557  -21.4907 H       1  <0>         0.0597
     73 H36         8.2296   18.8612  -19.6147 H       1  <0>         0.2018
     74 H37         6.9860   18.0362  -20.3461 H       1  <0>         0.2018
     75 H38         9.7431    9.9263  -22.1060 H       1  <0>         0.1549
     76 H39         9.6082   14.6559  -20.0587 H       1  <0>         0.1496
@<TRIPOS>BOND
     1     1    21    1
     2     2    24    1
     3     3    31    1
     4     4     5   ar
     5     4     7   ar
     6     5     8   ar
     7     6     9   ar
     8     6    10   ar
     9     7    18   ar
    10     8    19   ar
    11     9    29   ar
    12    10    30   ar
    13    11    12    1
    14    11    13    1
    15    12    14    1
    16    13    15    1
    17    14    22    1
    18    15    22    1
    19    16    17    1
    20    16    21    1
    21    17    34    1
    22    18    19   ar
    23    18    20    1
    24    19    32    1
    25    20    29   ar
    26    20    30   ar
    27    21    23    1
    28    22    25    1
    29    23    26    1
    30    23    34    1
    31    24    27    1
    32    24    31    1
    33    25    28    1
    34    25    33    1
    35    26    32   am
    36    26    35    2
    37    27    33   am
    38    27    36    2
    39    28    34   am
    40    28    37    2
    41     1    38    1
    42     1    39    1
    43     1    40    1
    44     2    41    1
    45     2    42    1
    46     2    43    1
    47     3    44    1
    48     3    45    1
    49     3    46    1
    50     4    47    1
    51     5    48    1
    52     6    49    1
    53     7    50    1
    54     8    51    1
    55     9    52    1
    56    10    53    1
    57    11    54    1
    58    11    55    1
    59    12    56    1
    60    12    57    1
    61    13    58    1
    62    13    59    1
    63    14    60    1
    64    14    61    1
    65    15    62    1
    66    15    63    1
    67    16    64    1
    68    16    65    1
    69    17    66    1
    70    17    67    1
    71    21    68    1
    72    22    69    1
    73    23    70    1
    74    24    71    1
    75    25    72    1
    76    31    73    1
    77    31    74    1
    78    32    75    1
    79    33    76    1
@<TRIPOS>SUBSTRUCTURE
     1 <0>         1 TEMP              0 ****  ****    0 ROOT

