
##########                                Name:          9JZ_1_3HL5
##########                    Molecular_Weight:             507.656
##########                DOCK_Rotatable_Bonds:                  11
##########                       Formal_Charge:              0.9998
##########                     HBond_Acceptors:                   9
##########                        HBond_Donors:                   4
##########                         Heavy_Atoms:                  37
##########                            HA_RMSDs:               1.003
##########                            HA_RMSDh:               1.003
##########                            HA_RMSDm:               0.968
##########                          Grid_Score:          -87.365685
##########                     Grid_vdw_energy:          -40.740421
##########                      Grid_es_energy:          -46.625263
##########           Internal_energy_repulsive:           35.191742

@<TRIPOS>MOLECULE
9JZ_1_3HL5
 76 79 1 0 0
SMALL
USER_CHARGES


@<TRIPOS>ATOM
      1 C1          6.4286    7.5748  -20.0228 C.3     1  <0>        -0.0602
      2 C2          8.3465   16.8495  -18.3683 C.3     1  <0>        -0.0130
      3 C3          8.2214   18.3302  -21.8851 C.3     1  <0>        -0.0441
      4 C4         13.6116    7.8192  -22.1370 C.ar    1  <0>        -0.0610
      5 C5         13.4029    8.6500  -21.0390 C.ar    1  <0>        -0.0600
      6 C6          8.2113    6.9979  -25.4580 C.ar    1  <0>        -0.0254
      7 C7         12.5488    7.5076  -22.9803 C.ar    1  <0>        -0.0493
      8 C8         12.1375    9.1741  -20.7930 C.ar    1  <0>        -0.0398
      9 C9          8.4255    8.3311  -25.1129 C.ar    1  <0>         0.0314
     10 C10         9.0179    6.0171  -24.8879 C.ar    1  <0>         0.0314
     11 C11         9.9871   13.6251  -25.0530 C.3     1  <0>        -0.0530
     12 C12         8.6615   14.3685  -24.8647 C.3     1  <0>        -0.0527
     13 C13        10.0035   12.3042  -24.2787 C.3     1  <0>        -0.0527
     14 C14         8.3700   14.6032  -23.3837 C.3     1  <0>        -0.0481
     15 C15         9.6430   12.4992  -22.8011 C.3     1  <0>        -0.0481
     16 C16         5.7796    9.5814  -21.4437 C.3     1  <0>        -0.0324
     17 C17         6.4454   10.9121  -21.7567 C.3     1  <0>         0.0158
     18 C18        11.2737    8.0296  -22.7384 C.ar    1  <0>         0.0403
     19 C19        11.0670    8.8771  -21.6450 C.ar    1  <0>         0.0442
     20 C20        10.1788    7.6722  -23.6889 C.ar    1  <0>         0.1615
     21 C21         6.9005    8.7616  -20.8548 C.3     1  <0>        -0.0153
     22 C22         8.3205   13.2673  -22.6349 C.3     1  <0>        -0.0141
     23 C23         7.7662    9.7542  -20.0823 C.3     1  <0>         0.1051
     24 C24         8.5973   16.8790  -19.8731 C.3     1  <0>         0.0518
     25 C25         7.8322   13.4073  -21.1779 C.3     1  <0>         0.1025
     26 C26         9.1692    9.2426  -20.2040 C.2     1  <0>         0.2380
     27 C27         7.8282   15.7707  -20.5287 C.2     1  <0>         0.2615
     28 C28         8.1759   12.1520  -20.4186 C.2     1  <0>         0.2368
     29 N1          9.4033    8.6412  -24.2444 N.ar    1  <0>        -0.2356
     30 N2          9.9837    6.3692  -24.0251 N.ar    1  <0>        -0.2356
     31 N3          8.2499   18.1742  -20.4409 N.4     1  <0>         0.2334
     32 N4          9.7750    9.3659  -21.3949 N.am    1  <0>        -0.2833
     33 N5          8.4428   14.5900  -20.5777 N.am    1  <0>        -0.2991
     34 N6          7.5066   11.0364  -20.7472 N.am    1  <0>        -0.2881
     35 O1          9.6874    8.7337  -19.2231 O.2     1  <0>        -0.2734
     36 O2          6.7184   15.9844  -21.0032 O.2     1  <0>        -0.2696
     37 O3          9.0486   12.1852  -19.5585 O.2     1  <0>        -0.2735
     38 H1          7.3008    7.0310  -19.6309 H       1  <0>         0.0233
     39 H2          5.8149    7.9360  -19.1844 H       1  <0>         0.0233
     40 H3          5.8292    6.9010  -20.6526 H       1  <0>         0.0233
     41 H4          8.9100   17.6619  -17.8861 H       1  <0>         0.0289
     42 H5          7.2722   16.9827  -18.1731 H       1  <0>         0.0289
     43 H6          8.6764   15.8826  -17.9606 H       1  <0>         0.0289
     44 H7          7.9422   19.3638  -22.1374 H       1  <0>         0.0777
     45 H8          9.2168   18.1085  -22.2974 H       1  <0>         0.0777
     46 H9          7.4838   17.6361  -22.3142 H       1  <0>         0.0777
     47 H10        14.5948    7.4178  -22.3336 H       1  <0>         0.0618
     48 H11        14.2235    8.8877  -20.3782 H       1  <0>         0.0618
     49 H12         7.4323    6.7302  -26.1564 H       1  <0>         0.0648
     50 H13        12.7100    6.8579  -23.8278 H       1  <0>         0.0625
     51 H14        11.9801    9.8151  -19.9380 H       1  <0>         0.0636
     52 H15         7.8103    9.1092  -25.5400 H       1  <0>         0.0831
     53 H16         8.8672    4.9774  -25.1387 H       1  <0>         0.0831
     54 H17        10.1248   13.4106  -26.1231 H       1  <0>         0.0265
     55 H18        10.8059   14.2615  -24.6862 H       1  <0>         0.0265
     56 H19         8.7214   15.3408  -25.3756 H       1  <0>         0.0265
     57 H20         7.8493   13.7659  -25.2975 H       1  <0>         0.0265
     58 H21         9.2696   11.6219  -24.7323 H       1  <0>         0.0265
     59 H22        11.0139   11.8735  -24.3399 H       1  <0>         0.0265
     60 H23         9.1648   15.2302  -22.9533 H       1  <0>         0.0269
     61 H24         7.3998   15.1116  -23.2818 H       1  <0>         0.0269
     62 H25         9.5393   11.5110  -22.3293 H       1  <0>         0.0269
     63 H26        10.4469   13.0703  -22.3136 H       1  <0>         0.0269
     64 H27         4.9496    9.7019  -20.7319 H       1  <0>         0.0284
     65 H28         5.3680    9.1121  -22.3494 H       1  <0>         0.0284
     66 H29         6.8621   10.9186  -22.7747 H       1  <0>         0.0465
     67 H30         5.7279   11.7427  -21.6839 H       1  <0>         0.0465
     68 H31         7.4817    8.2652  -21.6459 H       1  <0>         0.0321
     69 H32         7.5451   12.6432  -23.1031 H       1  <0>         0.0323
     70 H33         7.5672    9.8760  -19.0073 H       1  <0>         0.0599
     71 H34         9.6704   16.7254  -20.0596 H       1  <0>         0.0946
     72 H35         6.7403   13.5363  -21.1447 H       1  <0>         0.0597
     73 H36         8.9312   18.8225  -20.1011 H       1  <0>         0.2018
     74 H37         7.3278   18.3854  -20.1167 H       1  <0>         0.2018
     75 H38         9.2853    9.8255  -22.1358 H       1  <0>         0.1549
     76 H39         9.3600   14.5103  -20.1873 H       1  <0>         0.1496
@<TRIPOS>BOND
     1     1    21    1
     2     2    24    1
     3     3    31    1
     4     4     5   ar
     5     4     7   ar
     6     5     8   ar
     7     6     9   ar
     8     6    10   ar
     9     7    18   ar
    10     8    19   ar
    11     9    29   ar
    12    10    30   ar
    13    11    12    1
    14    11    13    1
    15    12    14    1
    16    13    15    1
    17    14    22    1
    18    15    22    1
    19    16    17    1
    20    16    21    1
    21    17    34    1
    22    18    19   ar
    23    18    20    1
    24    19    32    1
    25    20    29   ar
    26    20    30   ar
    27    21    23    1
    28    22    25    1
    29    23    26    1
    30    23    34    1
    31    24    27    1
    32    24    31    1
    33    25    28    1
    34    25    33    1
    35    26    32   am
    36    26    35    2
    37    27    33   am
    38    27    36    2
    39    28    34   am
    40    28    37    2
    41     1    38    1
    42     1    39    1
    43     1    40    1
    44     2    41    1
    45     2    42    1
    46     2    43    1
    47     3    44    1
    48     3    45    1
    49     3    46    1
    50     4    47    1
    51     5    48    1
    52     6    49    1
    53     7    50    1
    54     8    51    1
    55     9    52    1
    56    10    53    1
    57    11    54    1
    58    11    55    1
    59    12    56    1
    60    12    57    1
    61    13    58    1
    62    13    59    1
    63    14    60    1
    64    14    61    1
    65    15    62    1
    66    15    63    1
    67    16    64    1
    68    16    65    1
    69    17    66    1
    70    17    67    1
    71    21    68    1
    72    22    69    1
    73    23    70    1
    74    24    71    1
    75    25    72    1
    76    31    73    1
    77    31    74    1
    78    32    75    1
    79    33    76    1
@<TRIPOS>SUBSTRUCTURE
     1 <0>         1 TEMP              0 ****  ****    0 ROOT

