
##########                                Name:          9JZ_1_3HL5
##########                    Molecular_Weight:             507.656
##########                DOCK_Rotatable_Bonds:                  11
##########                       Formal_Charge:              0.9998
##########                     HBond_Acceptors:                   9
##########                        HBond_Donors:                   4
##########                         Heavy_Atoms:                  37
##########                            HA_RMSDs:               0.715
##########                            HA_RMSDh:               0.715
##########                            HA_RMSDm:               0.682
##########                          Grid_Score:          -86.351334
##########                     Grid_vdw_energy:          -38.027706
##########                      Grid_es_energy:          -48.323627
##########           Internal_energy_repulsive:           25.522512

@<TRIPOS>MOLECULE
9JZ_1_3HL5
 76 79 1 0 0
SMALL
USER_CHARGES


@<TRIPOS>ATOM
      1 C1          7.2517    7.6184  -19.7713 C.3     1  <0>        -0.0602
      2 C2          8.2873   16.7023  -18.3066 C.3     1  <0>        -0.0130
      3 C3          8.1067   18.4274  -21.7093 C.3     1  <0>        -0.0441
      4 C4         13.5979    8.0844  -23.9160 C.ar    1  <0>        -0.0610
      5 C5         13.7121    8.7824  -22.7163 C.ar    1  <0>        -0.0600
      6 C6          7.4998    7.7437  -25.8048 C.ar    1  <0>        -0.0254
      7 C7         12.3430    7.8895  -24.4860 C.ar    1  <0>        -0.0493
      8 C8         12.5751    9.2912  -22.0960 C.ar    1  <0>        -0.0398
      9 C9          7.7798    8.9785  -25.2224 C.ar    1  <0>         0.0314
     10 C10         8.4540    6.7329  -25.7313 C.ar    1  <0>         0.0314
     11 C11         9.8348   14.6065  -25.3293 C.3     1  <0>        -0.0530
     12 C12         8.3300   14.4201  -25.1143 C.3     1  <0>        -0.0527
     13 C13        10.6476   13.6207  -24.4854 C.3     1  <0>        -0.0527
     14 C14         7.9680   14.5437  -23.6354 C.3     1  <0>        -0.0481
     15 C15        10.2542   13.6710  -23.0042 C.3     1  <0>        -0.0481
     16 C16         6.2159    9.6212  -20.9469 C.3     1  <0>        -0.0324
     17 C17         6.7638   10.9449  -21.4567 C.3     1  <0>         0.0158
     18 C18        11.1955    8.3969  -23.8673 C.ar    1  <0>         0.0403
     19 C19        11.3111    9.1119  -22.6707 C.ar    1  <0>         0.0442
     20 C20         9.8802    8.1695  -24.5370 C.ar    1  <0>         0.1615
     21 C21         7.4576    8.7964  -20.7163 C.3     1  <0>        -0.0153
     22 C22         8.7368   13.5045  -22.8128 C.3     1  <0>        -0.0141
     23 C23         8.5212    9.7871  -20.2484 C.3     1  <0>         0.1051
     24 C24         8.5771   16.8757  -19.7946 C.3     1  <0>         0.0518
     25 C25         8.2742   13.4328  -21.3425 C.3     1  <0>         0.1025
     26 C26         9.8196    9.2639  -20.7829 C.2     1  <0>         0.2380
     27 C27         7.9715   15.7346  -20.5569 C.2     1  <0>         0.2615
     28 C28         8.8238   12.1795  -20.7119 C.2     1  <0>         0.2368
     29 N1          8.9602    9.1682  -24.6083 N.ar    1  <0>        -0.2356
     30 N2          9.6205    6.9638  -25.1091 N.ar    1  <0>        -0.2356
     31 N3          8.0885   18.1580  -20.2817 N.4     1  <0>         0.2334
     32 N4         10.1479    9.5856  -22.0435 N.am    1  <0>        -0.2833
     33 N5          8.7169   14.6338  -20.6400 N.am    1  <0>        -0.2991
     34 N6          8.0804   11.0671  -20.8146 N.am    1  <0>        -0.2881
     35 O1         10.5077    8.5678  -20.0538 O.2     1  <0>        -0.2734
     36 O2          6.8698   15.8559  -21.0804 O.2     1  <0>        -0.2696
     37 O3          9.9152   12.2112  -20.1548 O.2     1  <0>        -0.2735
     38 H1          8.1984    7.0703  -19.6559 H       1  <0>         0.0233
     39 H2          6.9210    7.9893  -18.7900 H       1  <0>         0.0233
     40 H3          6.4868    6.9454  -20.1859 H       1  <0>         0.0233
     41 H4          8.7309   17.5385  -17.7462 H       1  <0>         0.0289
     42 H5          7.1995   16.6885  -18.1443 H       1  <0>         0.0289
     43 H6          8.7225   15.7547  -17.9564 H       1  <0>         0.0289
     44 H7          7.7055   19.4341  -21.8982 H       1  <0>         0.0777
     45 H8          9.1407   18.3695  -22.0800 H       1  <0>         0.0777
     46 H9          7.4878   17.6824  -22.2308 H       1  <0>         0.0777
     47 H10        14.4803    7.6954  -24.4026 H       1  <0>         0.0618
     48 H11        14.6834    8.9289  -22.2673 H       1  <0>         0.0618
     49 H12         6.5579    7.5739  -26.3051 H       1  <0>         0.0648
     50 H13        12.2546    7.3424  -25.4129 H       1  <0>         0.0625
     51 H14        12.6686    9.8287  -21.1638 H       1  <0>         0.0636
     52 H15         7.0538    9.7769  -25.2641 H       1  <0>         0.0831
     53 H16         8.2565    5.7673  -26.1729 H       1  <0>         0.0831
     54 H17        10.0650   14.4379  -26.3916 H       1  <0>         0.0265
     55 H18        10.1101   15.6316  -25.0405 H       1  <0>         0.0265
     56 H19         7.7897   15.1934  -25.6802 H       1  <0>         0.0265
     57 H20         8.0392   13.4210  -25.4710 H       1  <0>         0.0265
     58 H21        10.4670   12.6033  -24.8626 H       1  <0>         0.0265
     59 H22        11.7135   13.8774  -24.5748 H       1  <0>         0.0265
     60 H23         8.2302   15.5516  -23.2814 H       1  <0>         0.0269
     61 H24         6.8878   14.3761  -23.5118 H       1  <0>         0.0269
     62 H25        10.7687   12.8560  -22.4741 H       1  <0>         0.0269
     63 H26        10.5578   14.6441  -22.5908 H       1  <0>         0.0269
     64 H27         5.6395    9.7524  -20.0193 H       1  <0>         0.0284
     65 H28         5.5480    9.1496  -21.6829 H       1  <0>         0.0284
     66 H29         6.8546   10.9420  -22.5529 H       1  <0>         0.0465
     67 H30         6.1061   11.7814  -21.1779 H       1  <0>         0.0465
     68 H31         7.7707    8.2908  -21.6417 H       1  <0>         0.0321
     69 H32         8.4880   12.5076  -23.2055 H       1  <0>         0.0323
     70 H33         8.6559    9.9168  -19.1644 H       1  <0>         0.0599
     71 H34         9.6661   16.8683  -19.9498 H       1  <0>         0.0946
     72 H35         7.1767   13.3905  -21.2821 H       1  <0>         0.0597
     73 H36         8.6618   18.8580  -19.8558 H       1  <0>         0.2018
     74 H37         7.1325   18.2222  -19.9952 H       1  <0>         0.2018
     75 H38         9.5381   10.1884  -22.5581 H       1  <0>         0.1549
     76 H39         9.6165   14.6298  -20.2035 H       1  <0>         0.1496
@<TRIPOS>BOND
     1     1    21    1
     2     2    24    1
     3     3    31    1
     4     4     5   ar
     5     4     7   ar
     6     5     8   ar
     7     6     9   ar
     8     6    10   ar
     9     7    18   ar
    10     8    19   ar
    11     9    29   ar
    12    10    30   ar
    13    11    12    1
    14    11    13    1
    15    12    14    1
    16    13    15    1
    17    14    22    1
    18    15    22    1
    19    16    17    1
    20    16    21    1
    21    17    34    1
    22    18    19   ar
    23    18    20    1
    24    19    32    1
    25    20    29   ar
    26    20    30   ar
    27    21    23    1
    28    22    25    1
    29    23    26    1
    30    23    34    1
    31    24    27    1
    32    24    31    1
    33    25    28    1
    34    25    33    1
    35    26    32   am
    36    26    35    2
    37    27    33   am
    38    27    36    2
    39    28    34   am
    40    28    37    2
    41     1    38    1
    42     1    39    1
    43     1    40    1
    44     2    41    1
    45     2    42    1
    46     2    43    1
    47     3    44    1
    48     3    45    1
    49     3    46    1
    50     4    47    1
    51     5    48    1
    52     6    49    1
    53     7    50    1
    54     8    51    1
    55     9    52    1
    56    10    53    1
    57    11    54    1
    58    11    55    1
    59    12    56    1
    60    12    57    1
    61    13    58    1
    62    13    59    1
    63    14    60    1
    64    14    61    1
    65    15    62    1
    66    15    63    1
    67    16    64    1
    68    16    65    1
    69    17    66    1
    70    17    67    1
    71    21    68    1
    72    22    69    1
    73    23    70    1
    74    24    71    1
    75    25    72    1
    76    31    73    1
    77    31    74    1
    78    32    75    1
    79    33    76    1
@<TRIPOS>SUBSTRUCTURE
     1 <0>         1 TEMP              0 ****  ****    0 ROOT

