
##########                                Name:          9JZ_1_3HL5
##########                    Molecular_Weight:             507.656
##########                DOCK_Rotatable_Bonds:                  11
##########                       Formal_Charge:              0.9998
##########                     HBond_Acceptors:                   9
##########                        HBond_Donors:                   4
##########                         Heavy_Atoms:                  37
##########                            HA_RMSDs:               1.351
##########                            HA_RMSDh:               1.351
##########                            HA_RMSDm:               1.158
##########                          Grid_Score:          -80.115814
##########                     Grid_vdw_energy:          -36.056767
##########                      Grid_es_energy:          -44.059044
##########           Internal_energy_repulsive:           31.599306

@<TRIPOS>MOLECULE
9JZ_1_3HL5
 76 79 1 0 0
SMALL
USER_CHARGES


@<TRIPOS>ATOM
      1 C1          6.6718    8.0240  -20.4814 C.3     1  <0>        -0.0602
      2 C2          8.5274   16.5995  -18.9720 C.3     1  <0>        -0.0130
      3 C3          7.7954   18.7438  -21.9992 C.3     1  <0>        -0.0441
      4 C4         14.0177    7.2086  -21.6171 C.ar    1  <0>        -0.0610
      5 C5         13.6206    7.8969  -20.4734 C.ar    1  <0>        -0.0600
      6 C6          9.6376    7.8196  -26.2484 C.ar    1  <0>        -0.0254
      7 C7         13.1928    7.1966  -22.7383 C.ar    1  <0>        -0.0493
      8 C8         12.4072    8.5780  -20.4567 C.ar    1  <0>        -0.0398
      9 C9          9.0237    7.7990  -24.9973 C.ar    1  <0>         0.0314
     10 C10        11.0275    7.8537  -26.3157 C.ar    1  <0>         0.0314
     11 C11        12.3225   13.9117  -24.8785 C.3     1  <0>        -0.0530
     12 C12        10.8978   14.1998  -25.3610 C.3     1  <0>        -0.0527
     13 C13        12.3477   12.7742  -23.8538 C.3     1  <0>        -0.0527
     14 C14         9.9724   14.5071  -24.1851 C.3     1  <0>        -0.0481
     15 C15        11.3731   13.0214  -22.6961 C.3     1  <0>        -0.0481
     16 C16         6.4493    9.8832  -22.2018 C.3     1  <0>        -0.0324
     17 C17         7.3020   11.0870  -22.5706 C.3     1  <0>         0.0158
     18 C18        11.9711    7.8779  -22.7284 C.ar    1  <0>         0.0403
     19 C19        11.5790    8.5827  -21.5856 C.ar    1  <0>         0.0442
     20 C20        11.1390    7.8416  -23.9679 C.ar    1  <0>         0.1615
     21 C21         7.3820    9.0377  -21.3709 C.3     1  <0>        -0.0153
     22 C22         9.9541   13.3309  -23.2033 C.3     1  <0>        -0.0141
     23 C23         8.2545   10.0295  -20.6051 C.3     1  <0>         0.1051
     24 C24         8.4939   16.8800  -20.4715 C.3     1  <0>         0.0518
     25 C25         8.8899   13.4823  -22.0963 C.3     1  <0>         0.1025
     26 C26         9.5913    9.3663  -20.4692 C.2     1  <0>         0.2380
     27 C27         8.1116   15.6285  -21.2045 C.2     1  <0>         0.2615
     28 C28         8.9842   12.3086  -21.1562 C.2     1  <0>         0.2368
     29 N1          9.7818    7.8161  -23.8877 N.ar    1  <0>        -0.2356
     30 N2         11.7478    7.8703  -25.1833 N.ar    1  <0>        -0.2356
     31 N3          7.5871   17.9758  -20.7835 N.4     1  <0>         0.2334
     32 N4         10.3350    9.2331  -21.5780 N.am    1  <0>        -0.2833
     33 N5          9.0940   14.7513  -21.4035 N.am    1  <0>        -0.2991
     34 N6          8.2345   11.2335  -21.4437 N.am    1  <0>        -0.2881
     35 O1          9.9336    8.9738  -19.3654 O.2     1  <0>        -0.2734
     36 O2          6.9635   15.4721  -21.6045 O.2     1  <0>        -0.2696
     37 O3          9.7390   12.3649  -20.1920 O.2     1  <0>        -0.2735
     38 H1          7.4170    7.4501  -19.9110 H       1  <0>         0.0233
     39 H2          6.0043    8.5521  -19.7846 H       1  <0>         0.0233
     40 H3          6.0813    7.3381  -21.1065 H       1  <0>         0.0233
     41 H4          8.8077   17.5166  -18.4330 H       1  <0>         0.0289
     42 H5          7.5328   16.2682  -18.6388 H       1  <0>         0.0289
     43 H6          9.2657   15.8114  -18.7629 H       1  <0>         0.0289
     44 H7          7.0253   19.5255  -22.0762 H       1  <0>         0.0777
     45 H8          8.7907   19.2113  -21.9712 H       1  <0>         0.0777
     46 H9          7.7282   18.0759  -22.8706 H       1  <0>         0.0777
     47 H10        14.9627    6.6859  -21.6340 H       1  <0>         0.0618
     48 H11        14.2546    7.9020  -19.5990 H       1  <0>         0.0618
     49 H12         9.0446    7.8093  -27.1509 H       1  <0>         0.0648
     50 H13        13.4985    6.6572  -23.6226 H       1  <0>         0.0625
     51 H14        12.1021    9.1073  -19.5661 H       1  <0>         0.0636
     52 H15         7.9469    7.7694  -24.9202 H       1  <0>         0.0831
     53 H16        11.5241    7.8669  -27.2747 H       1  <0>         0.0831
     54 H17        12.9384   13.6239  -25.7433 H       1  <0>         0.0265
     55 H18        12.7289   14.8202  -24.4101 H       1  <0>         0.0265
     56 H19        10.9179   15.0679  -26.0363 H       1  <0>         0.0265
     57 H20        10.5160   13.3170  -25.8948 H       1  <0>         0.0265
     58 H21        12.0630   11.8396  -24.3593 H       1  <0>         0.0265
     59 H22        13.3656   12.6922  -23.4449 H       1  <0>         0.0265
     60 H23        10.3338   15.4068  -23.6655 H       1  <0>         0.0269
     61 H24         8.9534   14.6801  -24.5619 H       1  <0>         0.0269
     62 H25        11.3348   12.1193  -22.0678 H       1  <0>         0.0269
     63 H26        11.7330   13.8787  -22.1082 H       1  <0>         0.0269
     64 H27         5.5562   10.1795  -21.6320 H       1  <0>         0.0284
     65 H28         6.1027    9.3440  -23.0958 H       1  <0>         0.0284
     66 H29         7.8417   10.9180  -23.5141 H       1  <0>         0.0465
     67 H30         6.6844   11.9886  -22.6956 H       1  <0>         0.0465
     68 H31         7.9955    8.3856  -22.0101 H       1  <0>         0.0321
     69 H32         9.6245   12.4356  -23.7508 H       1  <0>         0.0323
     70 H33         7.9372   10.3102  -19.5899 H       1  <0>         0.0599
     71 H34         9.4967   17.1913  -20.7993 H       1  <0>         0.0946
     72 H35         7.8784   13.4914  -22.5283 H       1  <0>         0.0597
     73 H36         7.6576   18.6241  -20.0254 H       1  <0>         0.2018
     74 H37         6.6745   17.5736  -20.8574 H       1  <0>         0.2018
     75 H38         9.9883    9.6133  -22.4355 H       1  <0>         0.1549
     76 H39        10.0088   14.9708  -21.0646 H       1  <0>         0.1496
@<TRIPOS>BOND
     1     1    21    1
     2     2    24    1
     3     3    31    1
     4     4     5   ar
     5     4     7   ar
     6     5     8   ar
     7     6     9   ar
     8     6    10   ar
     9     7    18   ar
    10     8    19   ar
    11     9    29   ar
    12    10    30   ar
    13    11    12    1
    14    11    13    1
    15    12    14    1
    16    13    15    1
    17    14    22    1
    18    15    22    1
    19    16    17    1
    20    16    21    1
    21    17    34    1
    22    18    19   ar
    23    18    20    1
    24    19    32    1
    25    20    29   ar
    26    20    30   ar
    27    21    23    1
    28    22    25    1
    29    23    26    1
    30    23    34    1
    31    24    27    1
    32    24    31    1
    33    25    28    1
    34    25    33    1
    35    26    32   am
    36    26    35    2
    37    27    33   am
    38    27    36    2
    39    28    34   am
    40    28    37    2
    41     1    38    1
    42     1    39    1
    43     1    40    1
    44     2    41    1
    45     2    42    1
    46     2    43    1
    47     3    44    1
    48     3    45    1
    49     3    46    1
    50     4    47    1
    51     5    48    1
    52     6    49    1
    53     7    50    1
    54     8    51    1
    55     9    52    1
    56    10    53    1
    57    11    54    1
    58    11    55    1
    59    12    56    1
    60    12    57    1
    61    13    58    1
    62    13    59    1
    63    14    60    1
    64    14    61    1
    65    15    62    1
    66    15    63    1
    67    16    64    1
    68    16    65    1
    69    17    66    1
    70    17    67    1
    71    21    68    1
    72    22    69    1
    73    23    70    1
    74    24    71    1
    75    25    72    1
    76    31    73    1
    77    31    74    1
    78    32    75    1
    79    33    76    1
@<TRIPOS>SUBSTRUCTURE
     1 <0>         1 TEMP              0 ****  ****    0 ROOT

