
##########                                Name:          9JZ_1_3HL5
##########                    Molecular_Weight:             507.656
##########                DOCK_Rotatable_Bonds:                  11
##########                       Formal_Charge:              0.9998
##########                     HBond_Acceptors:                   9
##########                        HBond_Donors:                   4
##########                         Heavy_Atoms:                  37
##########                            HA_RMSDs:               0.719
##########                            HA_RMSDh:               0.719
##########                            HA_RMSDm:               0.682
##########                          Grid_Score:          -89.396973
##########                     Grid_vdw_energy:          -41.044235
##########                      Grid_es_energy:          -48.352734
##########           Internal_energy_repulsive:           31.126886

@<TRIPOS>MOLECULE
9JZ_1_3HL5
 76 79 1 0 0
SMALL
USER_CHARGES


@<TRIPOS>ATOM
      1 C1          6.4777    7.7987  -20.0189 C.3     1  <0>        -0.0602
      2 C2          8.0403   16.7347  -18.3073 C.3     1  <0>        -0.0130
      3 C3          8.0764   18.6017  -21.6445 C.3     1  <0>        -0.0441
      4 C4         13.8791    7.8548  -21.7399 C.ar    1  <0>        -0.0610
      5 C5         13.4761    8.2621  -20.4706 C.ar    1  <0>        -0.0600
      6 C6          9.3362    9.0401  -26.0800 C.ar    1  <0>        -0.0254
      7 C7         13.0188    8.0136  -22.8227 C.ar    1  <0>        -0.0493
      8 C8         12.2210    8.8349  -20.2889 C.ar    1  <0>        -0.0398
      9 C9          9.2519    9.9577  -25.0344 C.ar    1  <0>         0.0314
     10 C10        10.2239    7.9736  -25.9697 C.ar    1  <0>         0.0314
     11 C11        10.9787   14.1752  -24.7762 C.3     1  <0>        -0.0530
     12 C12         9.4606   14.2383  -24.9680 C.3     1  <0>        -0.0527
     13 C13        11.3683   13.1255  -23.7319 C.3     1  <0>        -0.0527
     14 C14         8.7509   14.5023  -23.6413 C.3     1  <0>        -0.0481
     15 C15        10.6160   13.3222  -22.4103 C.3     1  <0>        -0.0481
     16 C16         6.0105    9.7753  -21.5490 C.3     1  <0>        -0.0324
     17 C17         6.7642   11.0535  -21.8812 C.3     1  <0>         0.0158
     18 C18        11.7550    8.5873  -22.6474 C.ar    1  <0>         0.0403
     19 C19        11.3560    9.0113  -21.3756 C.ar    1  <0>         0.0442
     20 C20        10.8851    8.7463  -23.8507 C.ar    1  <0>         0.1615
     21 C21         7.0545    8.9217  -20.8730 C.3     1  <0>        -0.0153
     22 C22         9.0954   13.4055  -22.6283 C.3     1  <0>        -0.0141
     23 C23         7.9369    9.8979  -20.0985 C.3     1  <0>         0.1051
     24 C24         8.3677   16.9451  -19.7827 C.3     1  <0>         0.0518
     25 C25         8.2600   13.4922  -21.3340 C.3     1  <0>         0.1025
     26 C26         9.3132    9.3063  -20.1300 C.2     1  <0>         0.2380
     27 C27         7.8449   15.7869  -20.5797 C.2     1  <0>         0.2615
     28 C28         8.4963   12.2535  -20.5092 C.2     1  <0>         0.2368
     29 N1         10.0278    9.7972  -23.9487 N.ar    1  <0>        -0.2356
     30 N2         10.9811    7.8500  -24.8686 N.ar    1  <0>        -0.2356
     31 N3          7.8302   18.2086  -20.2676 N.4     1  <0>         0.2334
     32 N4         10.0720    9.5538  -21.2085 N.am    1  <0>        -0.2833
     33 N5          8.6227   14.7059  -20.6079 N.am    1  <0>        -0.2991
     34 N6          7.7816   11.1628  -20.8260 N.am    1  <0>        -0.2881
     35 O1          9.6726    8.6249  -19.1832 O.2     1  <0>        -0.2734
     36 O2          6.7784   15.8781  -21.1769 O.2     1  <0>        -0.2696
     37 O3          9.3277   12.2758  -19.6088 O.2     1  <0>        -0.2735
     38 H1          7.2984    7.2256  -19.5629 H       1  <0>         0.0233
     39 H2          5.8462    8.2279  -19.2271 H       1  <0>         0.0233
     40 H3          5.8719    7.1322  -20.6504 H       1  <0>         0.0233
     41 H4          8.4231   17.5834  -17.7215 H       1  <0>         0.0289
     42 H5          6.9500   16.6638  -18.1803 H       1  <0>         0.0289
     43 H6          8.5117   15.8049  -17.9563 H       1  <0>         0.0289
     44 H7          7.6021   19.5749  -21.8391 H       1  <0>         0.0777
     45 H8          9.1602   18.6817  -21.8146 H       1  <0>         0.0777
     46 H9          7.6536   17.8458  -22.3226 H       1  <0>         0.0777
     47 H10        14.8559    7.4170  -21.8837 H       1  <0>         0.0618
     48 H11        14.1380    8.1333  -19.6269 H       1  <0>         0.0618
     49 H12         8.7227    9.1546  -26.9614 H       1  <0>         0.0648
     50 H13        13.3294    7.6915  -23.8056 H       1  <0>         0.0625
     51 H14        11.9118    9.1458  -19.3019 H       1  <0>         0.0636
     52 H15         8.5683   10.7915  -25.0960 H       1  <0>         0.0831
     53 H16        10.3029    7.2489  -26.7666 H       1  <0>         0.0831
     54 H17        11.4469   13.9114  -25.7361 H       1  <0>         0.0265
     55 H18        11.3350   15.1599  -24.4394 H       1  <0>         0.0265
     56 H19         9.2225   15.0521  -25.6687 H       1  <0>         0.0265
     57 H20         9.1117   13.2777  -25.3749 H       1  <0>         0.0265
     58 H21        11.1266   12.1285  -24.1287 H       1  <0>         0.0265
     59 H22        12.4479   13.2073  -23.5372 H       1  <0>         0.0265
     60 H23         9.0749   15.4759  -23.2449 H       1  <0>         0.0269
     61 H24         7.6636   14.5125  -23.8081 H       1  <0>         0.0269
     62 H25        10.8321   12.4691  -21.7503 H       1  <0>         0.0269
     63 H26        10.9581   14.2585  -21.9450 H       1  <0>         0.0269
     64 H27         5.1558    9.9708  -20.8847 H       1  <0>         0.0284
     65 H28         5.6166    9.2909  -22.4547 H       1  <0>         0.0284
     66 H29         7.2284   10.9942  -22.8768 H       1  <0>         0.0465
     67 H30         6.0918   11.9241  -21.8773 H       1  <0>         0.0465
     68 H31         7.6436    8.3614  -21.6139 H       1  <0>         0.0321
     69 H32         8.7962   12.4385  -23.0587 H       1  <0>         0.0323
     70 H33         7.6944   10.0758  -19.0404 H       1  <0>         0.0599
     71 H34         9.4599   16.9949  -19.9028 H       1  <0>         0.0946
     72 H35         7.1863   13.5454  -21.5673 H       1  <0>         0.0597
     73 H36         8.2312   18.9236  -19.6948 H       1  <0>         0.2018
     74 H37         6.8372   18.1501  -20.1648 H       1  <0>         0.2018
     75 H38         9.7074   10.1500  -21.9238 H       1  <0>         0.1549
     76 H39         9.4905   14.7265  -20.1116 H       1  <0>         0.1496
@<TRIPOS>BOND
     1     1    21    1
     2     2    24    1
     3     3    31    1
     4     4     5   ar
     5     4     7   ar
     6     5     8   ar
     7     6     9   ar
     8     6    10   ar
     9     7    18   ar
    10     8    19   ar
    11     9    29   ar
    12    10    30   ar
    13    11    12    1
    14    11    13    1
    15    12    14    1
    16    13    15    1
    17    14    22    1
    18    15    22    1
    19    16    17    1
    20    16    21    1
    21    17    34    1
    22    18    19   ar
    23    18    20    1
    24    19    32    1
    25    20    29   ar
    26    20    30   ar
    27    21    23    1
    28    22    25    1
    29    23    26    1
    30    23    34    1
    31    24    27    1
    32    24    31    1
    33    25    28    1
    34    25    33    1
    35    26    32   am
    36    26    35    2
    37    27    33   am
    38    27    36    2
    39    28    34   am
    40    28    37    2
    41     1    38    1
    42     1    39    1
    43     1    40    1
    44     2    41    1
    45     2    42    1
    46     2    43    1
    47     3    44    1
    48     3    45    1
    49     3    46    1
    50     4    47    1
    51     5    48    1
    52     6    49    1
    53     7    50    1
    54     8    51    1
    55     9    52    1
    56    10    53    1
    57    11    54    1
    58    11    55    1
    59    12    56    1
    60    12    57    1
    61    13    58    1
    62    13    59    1
    63    14    60    1
    64    14    61    1
    65    15    62    1
    66    15    63    1
    67    16    64    1
    68    16    65    1
    69    17    66    1
    70    17    67    1
    71    21    68    1
    72    22    69    1
    73    23    70    1
    74    24    71    1
    75    25    72    1
    76    31    73    1
    77    31    74    1
    78    32    75    1
    79    33    76    1
@<TRIPOS>SUBSTRUCTURE
     1 <0>         1 TEMP              0 ****  ****    0 ROOT

