
##########                                Name:      BTB_A1501_2V3F
##########                    Molecular_Weight:              210.25
##########                DOCK_Rotatable_Bonds:                  13
##########                       Formal_Charge:              0.9994
##########                     HBond_Acceptors:                   6
##########                        HBond_Donors:                   6
##########                         Heavy_Atoms:                  14
##########                            HA_RMSDs:               0.468
##########                            HA_RMSDh:               0.468
##########                            HA_RMSDm:               0.468
##########                          Grid_Score:         -131.674667
##########                     Grid_vdw_energy:          -32.649380
##########                      Grid_es_energy:          -99.025291
##########           Internal_energy_repulsive:           19.391991

@<TRIPOS>MOLECULE
BTB_A1501_2V3F
 34 33 1 0 0
SMALL
USER_CHARGES


@<TRIPOS>ATOM
      1 C1         34.1294   32.1702    0.9173 C.3     1  <0>        -0.0073
      2 C2         35.7668   33.1519   -0.7363 C.3     1  <0>        -0.0073
      3 C3         33.4674   33.5480    0.9552 C.3     1  <0>         0.0841
      4 C4         36.0919   32.1679   -1.8553 C.3     1  <0>         0.0841
      5 C5         36.3890   31.9300    2.8024 C.3     1  <0>         0.0940
      6 C6         37.9296   32.4649    0.9296 C.3     1  <0>         0.0940
      7 C7         36.6705   30.2762    0.9512 C.3     1  <0>         0.0940
      8 C8         36.6182   31.7791    1.2976 C.3     1  <0>         0.0605
      9 N1         35.5157   32.3805    0.5103 N.4     1  <0>         0.2477
     10 O1         33.2448   33.8369    2.3420 O.3     1  <0>        -0.3898
     11 O2         35.2218   31.0287   -1.7942 O.3     1  <0>        -0.3898
     12 O3         35.9348   33.2663    3.1668 O.3     1  <0>        -0.3890
     13 O4         38.9986   31.9096    1.7021 O.3     1  <0>        -0.3890
     14 O5         37.2152   29.5031    2.0255 O.3     1  <0>        -0.3890
     15 H1         34.0888   31.6981    1.9099 H       1  <0>         0.0837
     16 H2         33.6137   31.5170    0.1979 H       1  <0>         0.0837
     17 H3         36.6130   33.8384   -0.5859 H       1  <0>         0.0837
     18 H4         34.8722   33.7349   -1.0006 H       1  <0>         0.0837
     19 H5         34.1214   34.3063    0.5001 H       1  <0>         0.0610
     20 H6         32.5164   33.5379    0.4025 H       1  <0>         0.0610
     21 H7         35.9601   32.6697   -2.8253 H       1  <0>         0.0610
     22 H8         37.1336   31.8315   -1.7474 H       1  <0>         0.0610
     23 H9         35.6223   31.2048    3.1125 H       1  <0>         0.0618
     24 H10        37.3385   31.7312    3.3211 H       1  <0>         0.0618
     25 H11        38.1342   32.3113   -0.1403 H       1  <0>         0.0618
     26 H12        37.8494   33.5420    1.1382 H       1  <0>         0.0618
     27 H13        35.6483   29.9253    0.7466 H       1  <0>         0.0618
     28 H14        37.3039   30.1406    0.0621 H       1  <0>         0.0618
     29 H15        36.1760   32.9371    1.0144 H       1  <0>         0.2043
     30 H16        32.9185   34.7246    2.4327 H       1  <0>         0.2096
     31 H17        35.5600   30.3410   -2.3555 H       1  <0>         0.2096
     32 H18        35.8501   33.3258    4.1111 H       1  <0>         0.2097
     33 H19        39.7887   32.4181    1.5618 H       1  <0>         0.2097
     34 H20        37.3617   28.6115    1.7320 H       1  <0>         0.2097
@<TRIPOS>BOND
     1     1     3    1
     2     1     9    1
     3     2     4    1
     4     2     9    1
     5     3    10    1
     6     4    11    1
     7     5     8    1
     8     5    12    1
     9     6     8    1
    10     6    13    1
    11     7     8    1
    12     7    14    1
    13     8     9    1
    14     1    15    1
    15     1    16    1
    16     2    17    1
    17     2    18    1
    18     3    19    1
    19     3    20    1
    20     4    21    1
    21     4    22    1
    22     5    23    1
    23     5    24    1
    24     6    25    1
    25     6    26    1
    26     7    27    1
    27     7    28    1
    28     9    29    1
    29    10    30    1
    30    11    31    1
    31    12    32    1
    32    13    33    1
    33    14    34    1
@<TRIPOS>SUBSTRUCTURE
     1 <0>         1 TEMP              0 ****  ****    0 ROOT

