Z1319102921
 OpenBabel05312420472D

 25 28  0  0  0  0  0  0  0  0999 V2000
   20.2755  -17.5797    0.0000 C   0  0  0  0  0  0  0  0  0  0  0  0
   18.8082  -17.2679    0.0000 C   0  0  0  0  0  0  0  0  0  0  0  0
   17.6935  -18.2715    0.0000 C   0  0  0  0  0  0  0  0  0  0  0  0
   16.3944  -17.5215    0.0000 C   0  0  0  0  0  0  0  0  0  0  0  0
   16.7062  -16.0542    0.0000 C   0  0  0  0  0  0  0  0  0  0  0  0
   15.7026  -14.9395    0.0000 C   0  0  0  0  0  0  0  0  0  0  0  0
   16.1660  -13.5129    0.0000 C   0  0  0  0  0  0  0  0  0  0  0  0
   15.1624  -12.3982    0.0000 C   0  0  0  0  0  0  0  0  0  0  0  0
   13.6953  -12.7100    0.0000 O   0  0  0  0  0  0  0  0  0  0  0  0
   15.6260  -10.9716    0.0000 N   0  0  0  0  0  0  0  0  0  0  0  0
   14.6224   -9.8569    0.0000 C   0  0  0  0  0  0  0  0  0  0  0  0
   15.0858   -8.4303    0.0000 C   0  0  0  0  0  0  0  0  0  0  0  0
   16.5529   -8.1183    0.0000 C   0  0  0  0  0  0  0  0  0  0  0  0
   17.5568   -9.2333    0.0000 C   0  0  0  0  0  0  0  0  0  0  0  0
   17.0931  -10.6598    0.0000 C   0  0  0  0  0  0  0  0  0  0  0  0
   17.0166   -6.6918    0.0000 C   0  0  0  0  0  0  0  0  0  0  0  0
   16.1347   -5.4783    0.0000 C   0  0  0  0  0  0  0  0  0  0  0  0
   17.0166   -4.2647    0.0000 N   0  0  0  0  0  0  0  0  0  0  0  0
   18.4431   -4.7283    0.0000 C   0  0  0  0  0  0  0  0  0  0  0  0
   19.7422   -3.9785    0.0000 N   0  0  0  0  0  0  0  0  0  0  0  0
   21.0412   -4.7283    0.0000 C   0  0  0  0  0  0  0  0  0  0  0  0
   21.0412   -6.2283    0.0000 C   0  0  0  0  0  0  0  0  0  0  0  0
   19.7422   -6.9783    0.0000 C   0  0  0  0  0  0  0  0  0  0  0  0
   18.4431   -6.2283    0.0000 C   0  0  0  0  0  0  0  0  0  0  0  0
   18.1980  -15.8975    0.0000 O   0  0  0  0  0  0  0  0  0  0  0  0
  1  2  1  0  0  0  0
  2  3  2  0  0  0  0
  2 25  1  0  0  0  0
  3  4  1  0  0  0  0
  4  5  2  0  0  0  0
  5  6  1  0  0  0  0
  5 25  1  0  0  0  0
  6  7  1  0  0  0  0
  7  8  1  0  0  0  0
  8  9  2  0  0  0  0
  8 10  1  0  0  0  0
 10 11  1  0  0  0  0
 10 15  1  0  0  0  0
 11 12  1  0  0  0  0
 12 13  1  0  0  0  0
 13 14  2  0  0  0  0
 13 16  1  0  0  0  0
 14 15  1  0  0  0  0
 16 17  2  0  0  0  0
 16 24  1  0  0  0  0
 17 18  1  0  0  0  0
 18 19  1  0  0  0  0
 19 20  2  0  0  0  0
 19 24  1  0  0  0  0
 20 21  1  0  0  0  0
 21 22  2  0  0  0  0
 22 23  1  0  0  0  0
 23 24  2  0  0  0  0
M  END
$$$$
