Z2505824737
 OpenBabel05312420422D

 23 25  0  0  0  0  0  0  0  0999 V2000
    7.4228  -15.5437    0.0000 F   0  0  0  0  0  0  0  0  0  0  0  0
    7.4228  -14.0437    0.0000 C   0  0  0  0  0  0  0  0  0  0  0  0
    6.1239  -13.2937    0.0000 C   0  0  0  0  0  0  0  0  0  0  0  0
    6.1239  -11.7936    0.0000 C   0  0  0  0  0  0  0  0  0  0  0  0
    7.4228  -11.0436    0.0000 C   0  0  0  0  0  0  0  0  0  0  0  0
    8.7220  -11.7936    0.0000 C   0  0  0  0  0  0  0  0  0  0  0  0
   10.0211  -11.0436    0.0000 F   0  0  0  0  0  0  0  0  0  0  0  0
    8.7220  -13.2937    0.0000 C   0  0  0  0  0  0  0  0  0  0  0  0
   10.0211  -14.0437    0.0000 C   0  0  0  0  0  0  0  0  0  0  0  0
   11.3202  -13.2937    0.0000 C   0  0  0  0  0  0  0  0  0  0  0  0
   12.6193  -14.0437    0.0000 C   0  0  0  0  0  0  0  0  0  0  0  0
   13.9182  -13.2937    0.0000 N   0  0  0  0  0  0  0  0  0  0  0  0
   15.2173  -14.0437    0.0000 C   0  0  0  0  0  0  0  0  0  0  0  0
   15.2173  -15.5437    0.0000 C   0  0  0  0  0  0  0  0  0  0  0  0
   16.5163  -16.2937    0.0000 C   0  0  0  0  0  0  0  0  0  0  0  0
   17.8152  -15.5437    0.0000 C   0  0  0  0  0  0  0  0  0  0  0  0
   17.8152  -14.0437    0.0000 C   0  0  0  0  0  0  0  0  0  0  0  0
   16.5163  -13.2937    0.0000 C   0  0  0  0  0  0  0  0  0  0  0  0
   16.5163  -11.7936    0.0000 C   0  0  0  0  0  0  0  0  0  0  0  0
   17.8152  -11.0436    0.0000 C   0  0  0  0  0  0  0  0  0  0  0  0
   19.1143  -11.7936    0.0000 N   0  0  0  0  0  0  0  0  0  0  0  0
   19.1143  -13.2937    0.0000 C   0  0  0  0  0  0  0  0  0  0  0  0
   20.4132  -14.0437    0.0000 O   0  0  0  0  0  0  0  0  0  0  0  0
  1  2  1  0  0  0  0
  2  3  2  0  0  0  0
  2  8  1  0  0  0  0
  3  4  1  0  0  0  0
  4  5  2  0  0  0  0
  5  6  1  0  0  0  0
  6  7  1  0  0  0  0
  6  8  2  0  0  0  0
  8  9  1  0  0  0  0
  9 10  1  0  0  0  0
 10 11  1  0  0  0  0
 11 12  1  0  0  0  0
 12 13  1  0  0  0  0
 13 14  2  0  0  0  0
 13 18  1  0  0  0  0
 14 15  1  0  0  0  0
 15 16  2  0  0  0  0
 16 17  1  0  0  0  0
 17 18  2  0  0  0  0
 17 22  1  0  0  0  0
 18 19  1  0  0  0  0
 19 20  1  0  0  0  0
 20 21  1  0  0  0  0
 21 22  1  0  0  0  0
 22 23  2  0  0  0  0
M  END
$$$$
