Z2633849139
 OpenBabel05312420482D

 23 25  0  0  0  0  0  0  0  0999 V2000
   29.6568   -6.5996    0.0000 C   0  0  0  0  0  0  0  0  0  0  0  0
   28.1650   -6.7563    0.0000 C   0  0  0  0  0  0  0  0  0  0  0  0
   27.2834   -5.5427    0.0000 C   0  0  0  0  0  0  0  0  0  0  0  0
   27.5548   -8.1266    0.0000 C   0  0  0  0  0  0  0  0  0  0  0  0
   26.0632   -8.2834    0.0000 C   0  0  0  0  0  0  0  0  0  0  0  0
   25.4530   -9.6537    0.0000 N   0  0  0  0  0  0  0  0  0  0  0  0
   26.2030  -10.9528    0.0000 C   0  0  0  0  0  0  0  0  0  0  0  0
   25.1992  -12.0674    0.0000 C   0  0  0  0  0  0  0  0  0  0  0  0
   23.8290  -11.4574    0.0000 C   0  0  0  0  0  0  0  0  0  0  0  0
   22.5299  -12.2074    0.0000 N   0  0  0  0  0  0  0  0  0  0  0  0
   22.5299  -13.7074    0.0000 C   0  0  0  0  0  0  0  0  0  0  0  0
   23.8290  -14.4574    0.0000 O   0  0  0  0  0  0  0  0  0  0  0  0
   21.2308  -14.4574    0.0000 C   0  0  0  0  0  0  0  0  0  0  0  0
   21.2308  -15.9573    0.0000 C   0  0  0  0  0  0  0  0  0  0  0  0
   19.9319  -16.7073    0.0000 C   0  0  0  0  0  0  0  0  0  0  0  0
   18.6328  -15.9573    0.0000 C   0  0  0  0  0  0  0  0  0  0  0  0
   17.2063  -16.4210    0.0000 N   0  0  0  0  0  0  0  0  0  0  0  0
   16.3245  -15.2074    0.0000 N   0  0  0  0  0  0  0  0  0  0  0  0
   17.2063  -13.9939    0.0000 C   0  0  0  0  0  0  0  0  0  0  0  0
   16.7427  -12.5674    0.0000 C   0  0  0  0  0  0  0  0  0  0  0  0
   18.6328  -14.4574    0.0000 C   0  0  0  0  0  0  0  0  0  0  0  0
   19.9319  -13.7074    0.0000 C   0  0  0  0  0  0  0  0  0  0  0  0
   23.9857   -9.9655    0.0000 N   0  0  0  0  0  0  0  0  0  0  0  0
  1  2  1  0  0  0  0
  2  3  1  0  0  0  0
  2  4  1  0  0  0  0
  4  5  1  0  0  0  0
  5  6  1  0  0  0  0
  6  7  1  0  0  0  0
  6 23  1  0  0  0  0
  7  8  2  0  0  0  0
  8  9  1  0  0  0  0
  9 10  1  0  0  0  0
  9 23  2  0  0  0  0
 10 11  1  0  0  0  0
 11 12  2  0  0  0  0
 11 13  1  0  0  0  0
 13 14  2  0  0  0  0
 13 22  1  0  0  0  0
 14 15  1  0  0  0  0
 15 16  2  0  0  0  0
 16 17  1  0  0  0  0
 16 21  1  0  0  0  0
 17 18  1  0  0  0  0
 18 19  2  0  0  0  0
 19 20  1  0  0  0  0
 19 21  1  0  0  0  0
 21 22  2  0  0  0  0
M  END
$$$$
