Z2632659156
 OpenBabel05312420492D

 23 26  0  0  0  0  0  0  0  0999 V2000
   28.2015   -9.2716    0.0000 C   0  0  0  0  0  0  0  0  0  0  0  0
   27.3197  -10.4851    0.0000 C   0  0  0  0  0  0  0  0  0  0  0  0
   25.8280  -10.3284    0.0000 N   0  0  0  0  0  0  0  0  0  0  0  0
   24.8242  -11.4429    0.0000 N   0  0  0  0  0  0  0  0  0  0  0  0
   23.4540  -10.8329    0.0000 C   0  0  0  0  0  0  0  0  0  0  0  0
   22.1549  -11.5829    0.0000 N   0  0  0  0  0  0  0  0  0  0  0  0
   22.1549  -13.0829    0.0000 C   0  0  0  0  0  0  0  0  0  0  0  0
   23.4540  -13.8329    0.0000 O   0  0  0  0  0  0  0  0  0  0  0  0
   20.8558  -13.8329    0.0000 C   0  0  0  0  0  0  0  0  0  0  0  0
   20.8558  -15.3329    0.0000 C   0  0  0  0  0  0  0  0  0  0  0  0
   19.5569  -16.0829    0.0000 C   0  0  0  0  0  0  0  0  0  0  0  0
   18.2578  -15.3329    0.0000 C   0  0  0  0  0  0  0  0  0  0  0  0
   16.8313  -15.7965    0.0000 N   0  0  0  0  0  0  0  0  0  0  0  0
   15.9495  -14.5829    0.0000 N   0  0  0  0  0  0  0  0  0  0  0  0
   16.8313  -13.3695    0.0000 C   0  0  0  0  0  0  0  0  0  0  0  0
   16.3677  -11.9429    0.0000 C   0  0  0  0  0  0  0  0  0  0  0  0
   18.2578  -13.8329    0.0000 C   0  0  0  0  0  0  0  0  0  0  0  0
   19.5569  -13.0829    0.0000 C   0  0  0  0  0  0  0  0  0  0  0  0
   23.6107   -9.3411    0.0000 C   0  0  0  0  0  0  0  0  0  0  0  0
   25.0780   -9.0293    0.0000 C   0  0  0  0  0  0  0  0  0  0  0  0
   25.6882   -7.6589    0.0000 C   0  0  0  0  0  0  0  0  0  0  0  0
   25.5313   -6.1671    0.0000 C   0  0  0  0  0  0  0  0  0  0  0  0
   26.9017   -6.7773    0.0000 C   0  0  0  0  0  0  0  0  0  0  0  0
  1  2  1  0  0  0  0
  2  3  1  0  0  0  0
  3  4  1  0  0  0  0
  3 20  1  0  0  0  0
  4  5  2  0  0  0  0
  5  6  1  0  0  0  0
  5 19  1  0  0  0  0
  6  7  1  0  0  0  0
  7  8  2  0  0  0  0
  7  9  1  0  0  0  0
  9 10  2  0  0  0  0
  9 18  1  0  0  0  0
 10 11  1  0  0  0  0
 11 12  2  0  0  0  0
 12 13  1  0  0  0  0
 12 17  1  0  0  0  0
 13 14  1  0  0  0  0
 14 15  2  0  0  0  0
 15 16  1  0  0  0  0
 15 17  1  0  0  0  0
 17 18  2  0  0  0  0
 19 20  2  0  0  0  0
 20 21  1  0  0  0  0
 21 22  1  0  0  0  0
 21 23  1  0  0  0  0
 22 23  1  0  0  0  0
M  END
$$$$
