Z2636445892
 OpenBabel05312420492D

 26 28  0  0  0  0  0  0  0  0999 V2000
   24.9154  -11.8750    0.0000 C   0  0  0  0  0  0  0  0  0  0  0  0
   23.6165  -11.1250    0.0000 C   0  0  3  0  0  0  0  0  0  0  0  0
   23.6165   -9.6250    0.0000 C   0  0  0  0  0  0  0  0  0  0  0  0
   24.9154   -8.8750    0.0000 S   0  0  0  0  0  0  0  0  0  0  0  0
   24.1654   -7.5759    0.0000 O   0  0  0  0  0  0  0  0  0  0  0  0
   25.6654  -10.1741    0.0000 O   0  0  0  0  0  0  0  0  0  0  0  0
   26.2145   -8.1250    0.0000 C   0  0  0  0  0  0  0  0  0  0  0  0
   26.2145   -6.6250    0.0000 C   0  0  0  0  0  0  0  0  0  0  0  0
   27.5136   -5.8750    0.0000 C   0  0  0  0  0  0  0  0  0  0  0  0
   28.8127   -6.6250    0.0000 C   0  0  0  0  0  0  0  0  0  0  0  0
   30.1118   -5.8750    0.0000 C   0  0  0  0  0  0  0  0  0  0  0  0
   28.8127   -8.1250    0.0000 C   0  0  0  0  0  0  0  0  0  0  0  0
   27.5136   -8.8750    0.0000 C   0  0  0  0  0  0  0  0  0  0  0  0
   22.3174  -11.8750    0.0000 N   0  0  0  0  0  0  0  0  0  0  0  0
   22.3174  -13.3750    0.0000 C   0  0  0  0  0  0  0  0  0  0  0  0
   23.6165  -14.1250    0.0000 O   0  0  0  0  0  0  0  0  0  0  0  0
   21.0184  -14.1250    0.0000 C   0  0  0  0  0  0  0  0  0  0  0  0
   21.0184  -15.6250    0.0000 C   0  0  0  0  0  0  0  0  0  0  0  0
   19.7195  -16.3750    0.0000 C   0  0  0  0  0  0  0  0  0  0  0  0
   18.4204  -15.6250    0.0000 C   0  0  0  0  0  0  0  0  0  0  0  0
   16.9938  -16.0886    0.0000 N   0  0  0  0  0  0  0  0  0  0  0  0
   16.1120  -14.8750    0.0000 N   0  0  0  0  0  0  0  0  0  0  0  0
   16.9938  -13.6615    0.0000 C   0  0  0  0  0  0  0  0  0  0  0  0
   16.5302  -12.2350    0.0000 C   0  0  0  0  0  0  0  0  0  0  0  0
   18.4204  -14.1250    0.0000 C   0  0  0  0  0  0  0  0  0  0  0  0
   19.7195  -13.3750    0.0000 C   0  0  0  0  0  0  0  0  0  0  0  0
  1  2  1  0  0  0  0
  2  3  1  0  0  0  0
  2 14  1  0  0  0  0
  3  4  1  0  0  0  0
  4  5  2  0  0  0  0
  4  6  2  0  0  0  0
  4  7  1  0  0  0  0
  7  8  2  0  0  0  0
  7 13  1  0  0  0  0
  8  9  1  0  0  0  0
  9 10  2  0  0  0  0
 10 11  1  0  0  0  0
 10 12  1  0  0  0  0
 12 13  2  0  0  0  0
 14 15  1  0  0  0  0
 15 16  2  0  0  0  0
 15 17  1  0  0  0  0
 17 18  2  0  0  0  0
 17 26  1  0  0  0  0
 18 19  1  0  0  0  0
 19 20  2  0  0  0  0
 20 21  1  0  0  0  0
 20 25  1  0  0  0  0
 21 22  1  0  0  0  0
 22 23  2  0  0  0  0
 23 24  1  0  0  0  0
 23 25  1  0  0  0  0
 25 26  2  0  0  0  0
M  END
$$$$
