Z3294657258
 OpenBabel05312420482D

 25 29  0  0  0  0  0  0  0  0999 V2000
   13.6953  -13.1925    0.0000 O   0  0  0  0  0  0  0  0  0  0  0  0
   15.1624  -12.8807    0.0000 C   0  0  0  0  0  0  0  0  0  0  0  0
   16.1660  -13.9954    0.0000 C   0  0  3  0  0  0  0  0  0  0  0  0
   17.6640  -14.0739    0.0000 C   0  0  0  0  0  0  0  0  0  0  0  0
   17.5855  -15.5720    0.0000 C   0  0  3  0  0  0  0  0  0  0  0  0
   16.0877  -15.4934    0.0000 C   0  0  0  0  0  0  0  0  0  0  0  0
   19.0773  -15.4150    0.0000 C   0  0  0  0  0  0  0  0  0  0  0  0
   19.6875  -16.7854    0.0000 C   0  0  0  0  0  0  0  0  0  0  0  0
   18.5728  -17.7891    0.0000 C   0  0  0  0  0  0  0  0  0  0  0  0
   17.2737  -17.0391    0.0000 O   0  0  0  0  0  0  0  0  0  0  0  0
   15.6260  -11.4541    0.0000 N   0  0  0  0  0  0  0  0  0  0  0  0
   14.6224  -10.3394    0.0000 C   0  0  0  0  0  0  0  0  0  0  0  0
   15.0858   -8.9128    0.0000 C   0  0  0  0  0  0  0  0  0  0  0  0
   16.5529   -8.6008    0.0000 C   0  0  0  0  0  0  0  0  0  0  0  0
   17.5568   -9.7157    0.0000 C   0  0  0  0  0  0  0  0  0  0  0  0
   17.0931  -11.1423    0.0000 C   0  0  0  0  0  0  0  0  0  0  0  0
   17.0166   -7.1742    0.0000 C   0  0  0  0  0  0  0  0  0  0  0  0
   16.1347   -5.9608    0.0000 C   0  0  0  0  0  0  0  0  0  0  0  0
   17.0166   -4.7471    0.0000 N   0  0  0  0  0  0  0  0  0  0  0  0
   18.4431   -5.2108    0.0000 C   0  0  0  0  0  0  0  0  0  0  0  0
   19.7422   -4.4609    0.0000 N   0  0  0  0  0  0  0  0  0  0  0  0
   21.0412   -5.2108    0.0000 C   0  0  0  0  0  0  0  0  0  0  0  0
   21.0412   -6.7108    0.0000 C   0  0  0  0  0  0  0  0  0  0  0  0
   19.7422   -7.4608    0.0000 C   0  0  0  0  0  0  0  0  0  0  0  0
   18.4431   -6.7108    0.0000 C   0  0  0  0  0  0  0  0  0  0  0  0
  1  2  2  0  0  0  0
  2  3  1  0  0  0  0
  2 11  1  0  0  0  0
  3  4  1  0  0  0  0
  3  6  1  0  0  0  0
  4  5  1  0  0  0  0
  5  6  1  0  0  0  0
  5  7  1  0  0  0  0
  5 10  1  0  0  0  0
  7  8  1  0  0  0  0
  8  9  1  0  0  0  0
  9 10  1  0  0  0  0
 11 12  1  0  0  0  0
 11 16  1  0  0  0  0
 12 13  1  0  0  0  0
 13 14  1  0  0  0  0
 14 15  2  0  0  0  0
 14 17  1  0  0  0  0
 15 16  1  0  0  0  0
 17 18  2  0  0  0  0
 17 25  1  0  0  0  0
 18 19  1  0  0  0  0
 19 20  1  0  0  0  0
 20 21  2  0  0  0  0
 20 25  1  0  0  0  0
 21 22  1  0  0  0  0
 22 23  2  0  0  0  0
 23 24  1  0  0  0  0
 24 25  2  0  0  0  0
M  END
$$$$
