Z3496050817
 OpenBabel05312420422D

 24 27  0  0  0  0  0  0  0  0999 V2000
   10.7548  -17.0917    0.0000 C   0  0  0  0  0  0  0  0  0  0  0  0
    9.6401  -16.0881    0.0000 C   0  0  0  0  0  0  0  0  0  0  0  0
    8.1728  -16.3997    0.0000 N   0  0  0  0  0  0  0  0  0  0  0  0
    7.4228  -15.1008    0.0000 N   0  0  0  0  0  0  0  0  0  0  0  0
    8.4264  -13.9860    0.0000 C   0  0  0  0  0  0  0  0  0  0  0  0
    9.7968  -14.5962    0.0000 C   0  0  0  0  0  0  0  0  0  0  0  0
   11.0959  -13.8462    0.0000 C   0  0  0  0  0  0  0  0  0  0  0  0
   12.3948  -14.5962    0.0000 N   0  0  0  0  0  0  0  0  0  0  0  0
   13.6937  -13.8462    0.0000 C   0  0  0  0  0  0  0  0  0  0  0  0
   13.6937  -12.3462    0.0000 C   0  0  0  0  0  0  0  0  0  0  0  0
   14.9928  -11.5962    0.0000 C   0  0  0  0  0  0  0  0  0  0  0  0
   16.2917  -12.3462    0.0000 C   0  0  0  0  0  0  0  0  0  0  0  0
   17.5908  -11.5962    0.0000 C   0  0  0  0  0  0  0  0  0  0  0  0
   17.5908  -10.0962    0.0000 O   0  0  0  0  0  0  0  0  0  0  0  0
   18.8899  -12.3462    0.0000 N   0  0  0  0  0  0  0  0  0  0  0  0
   18.8899  -13.8462    0.0000 C   0  0  0  0  0  0  0  0  0  0  0  0
   17.5908  -14.5962    0.0000 C   0  0  0  0  0  0  0  0  0  0  0  0
   16.2917  -13.8462    0.0000 C   0  0  0  0  0  0  0  0  0  0  0  0
   14.9928  -14.5962    0.0000 C   0  0  0  0  0  0  0  0  0  0  0  0
    5.9309  -14.9441    0.0000 C   0  0  0  0  0  0  0  0  0  0  0  0
    4.9273  -16.0586    0.0000 C   0  0  0  0  0  0  0  0  0  0  0  0
    3.5569  -15.4486    0.0000 C   0  0  0  0  0  0  0  0  0  0  0  0
    3.7137  -13.9568    0.0000 C   0  0  0  0  0  0  0  0  0  0  0  0
    5.1809  -13.6450    0.0000 C   0  0  0  0  0  0  0  0  0  0  0  0
  1  2  1  0  0  0  0
  2  3  2  0  0  0  0
  2  6  1  0  0  0  0
  3  4  1  0  0  0  0
  4  5  1  0  0  0  0
  4 20  1  0  0  0  0
  5  6  2  0  0  0  0
  6  7  1  0  0  0  0
  7  8  1  0  0  0  0
  8  9  1  0  0  0  0
  9 10  2  0  0  0  0
  9 19  1  0  0  0  0
 10 11  1  0  0  0  0
 11 12  2  0  0  0  0
 12 13  1  0  0  0  0
 12 18  1  0  0  0  0
 13 14  2  0  0  0  0
 13 15  1  0  0  0  0
 15 16  1  0  0  0  0
 16 17  2  0  0  0  0
 17 18  1  0  0  0  0
 18 19  2  0  0  0  0
 20 21  1  0  0  0  0
 20 24  1  0  0  0  0
 21 22  1  0  0  0  0
 22 23  1  0  0  0  0
 23 24  1  0  0  0  0
M  END
$$$$
