Z3704235136
 OpenBabel05312420392D

 24 26  0  0  0  0  0  0  0  0999 V2000
   24.2891   -8.1199    0.0000 C   0  0  0  0  0  0  0  0  0  0  0  0
   24.2891   -9.6199    0.0000 C   0  0  0  0  0  0  0  0  0  0  0  0
   25.5882  -10.3700    0.0000 C   0  0  0  0  0  0  0  0  0  0  0  0
   22.9902  -10.3700    0.0000 C   0  0  0  0  0  0  0  0  0  0  0  0
   22.9902  -11.8700    0.0000 N   0  0  0  0  0  0  0  0  0  0  0  0
   24.2037  -12.7517    0.0000 C   0  0  0  0  0  0  0  0  0  0  0  0
   23.7402  -14.1782    0.0000 C   0  0  0  0  0  0  0  0  0  0  0  0
   22.2403  -14.1782    0.0000 C   0  0  0  0  0  0  0  0  0  0  0  0
   21.3585  -15.3917    0.0000 C   0  0  0  0  0  0  0  0  0  0  0  0
   21.9687  -16.7621    0.0000 N   0  0  0  0  0  0  0  0  0  0  0  0
   23.4604  -16.9188    0.0000 C   0  0  0  0  0  0  0  0  0  0  0  0
   24.3420  -15.7054    0.0000 O   0  0  0  0  0  0  0  0  0  0  0  0
   24.0704  -18.2892    0.0000 C   0  0  0  0  0  0  0  0  0  0  0  0
   25.5622  -18.4462    0.0000 C   0  0  0  0  0  0  0  0  0  0  0  0
   26.1723  -19.8164    0.0000 C   0  0  0  0  0  0  0  0  0  0  0  0
   25.2908  -21.0300    0.0000 C   0  0  0  0  0  0  0  0  0  0  0  0
   23.7989  -20.8731    0.0000 C   0  0  0  0  0  0  0  0  0  0  0  0
   23.1887  -19.5029    0.0000 C   0  0  0  0  0  0  0  0  0  0  0  0
   25.9008  -22.4004    0.0000 C   0  0  0  0  0  0  0  0  0  0  0  0
   27.3681  -22.7123    0.0000 C   0  0  0  0  0  0  0  0  0  0  0  0
   27.5248  -24.2039    0.0000 N   0  0  0  0  0  0  0  0  0  0  0  0
   26.1544  -24.8141    0.0000 N   0  0  0  0  0  0  0  0  0  0  0  0
   25.1508  -23.6994    0.0000 C   0  0  0  0  0  0  0  0  0  0  0  0
   21.7767  -12.7517    0.0000 N   0  0  0  0  0  0  0  0  0  0  0  0
  1  2  1  0  0  0  0
  2  3  1  0  0  0  0
  2  4  1  0  0  0  0
  4  5  1  0  0  0  0
  5  6  1  0  0  0  0
  5 24  1  0  0  0  0
  6  7  2  0  0  0  0
  7  8  1  0  0  0  0
  8  9  1  0  0  0  0
  8 24  2  0  0  0  0
  9 10  1  0  0  0  0
 10 11  1  0  0  0  0
 11 12  2  0  0  0  0
 11 13  1  0  0  0  0
 13 14  2  0  0  0  0
 13 18  1  0  0  0  0
 14 15  1  0  0  0  0
 15 16  2  0  0  0  0
 16 17  1  0  0  0  0
 16 19  1  0  0  0  0
 17 18  2  0  0  0  0
 19 20  2  0  0  0  0
 19 23  1  0  0  0  0
 20 21  1  0  0  0  0
 21 22  1  0  0  0  0
 22 23  2  0  0  0  0
M  END
$$$$
