Z4540473281
 OpenBabel05312420142D

 26 29  0  0  0  0  0  0  0  0999 V2000
   15.1050   -9.4513    0.0000 C   0  0  0  0  0  0  0  0  0  0  0  0
   14.1012   -8.3363    0.0000 C   0  0  3  0  0  0  0  0  0  0  0  0
   12.6341   -8.6483    0.0000 C   0  0  0  0  0  0  0  0  0  0  0  0
   12.1706  -10.0749    0.0000 N   0  0  0  0  0  0  0  0  0  0  0  0
   10.7033  -10.3867    0.0000 C   0  0  0  0  0  0  0  0  0  0  0  0
    9.6997   -9.2720    0.0000 O   0  0  0  0  0  0  0  0  0  0  0  0
   10.2399  -11.8135    0.0000 C   0  0  0  0  0  0  0  0  0  0  0  0
   11.2435  -12.9280    0.0000 C   0  0  0  0  0  0  0  0  0  0  0  0
   10.7800  -14.3547    0.0000 C   0  0  0  0  0  0  0  0  0  0  0  0
    9.3128  -14.6666    0.0000 C   0  0  0  0  0  0  0  0  0  0  0  0
    8.3091  -13.5518    0.0000 C   0  0  0  0  0  0  0  0  0  0  0  0
    8.7726  -12.1253    0.0000 C   0  0  0  0  0  0  0  0  0  0  0  0
    8.8493  -16.0931    0.0000 C   0  0  0  0  0  0  0  0  0  0  0  0
    9.7310  -17.3066    0.0000 C   0  0  0  0  0  0  0  0  0  0  0  0
    8.8493  -18.5202    0.0000 N   0  0  0  0  0  0  0  0  0  0  0  0
    7.4228  -18.0566    0.0000 N   0  0  0  0  0  0  0  0  0  0  0  0
    7.4228  -16.5566    0.0000 C   0  0  0  0  0  0  0  0  0  0  0  0
   14.5648   -6.9098    0.0000 N   0  0  0  0  0  0  0  0  0  0  0  0
   13.6830   -5.6963    0.0000 C   0  0  0  0  0  0  0  0  0  0  0  0
   14.5648   -4.4827    0.0000 C   0  0  0  0  0  0  0  0  0  0  0  0
   15.9913   -4.9463    0.0000 C   0  0  0  0  0  0  0  0  0  0  0  0
   17.2904   -4.1965    0.0000 C   0  0  0  0  0  0  0  0  0  0  0  0
   18.5894   -4.9463    0.0000 C   0  0  0  0  0  0  0  0  0  0  0  0
   18.5894   -6.4463    0.0000 C   0  0  0  0  0  0  0  0  0  0  0  0
   17.2904   -7.1963    0.0000 C   0  0  0  0  0  0  0  0  0  0  0  0
   15.9913   -6.4463    0.0000 C   0  0  0  0  0  0  0  0  0  0  0  0
  1  2  1  0  0  0  0
  2  3  1  0  0  0  0
  2 18  1  0  0  0  0
  3  4  1  0  0  0  0
  4  5  1  0  0  0  0
  5  6  2  0  0  0  0
  5  7  1  0  0  0  0
  7  8  2  0  0  0  0
  7 12  1  0  0  0  0
  8  9  1  0  0  0  0
  9 10  2  0  0  0  0
 10 11  1  0  0  0  0
 10 13  1  0  0  0  0
 11 12  2  0  0  0  0
 13 14  2  0  0  0  0
 13 17  1  0  0  0  0
 14 15  1  0  0  0  0
 15 16  1  0  0  0  0
 16 17  2  0  0  0  0
 18 19  1  0  0  0  0
 18 26  1  0  0  0  0
 19 20  1  0  0  0  0
 20 21  1  0  0  0  0
 21 22  2  0  0  0  0
 21 26  1  0  0  0  0
 22 23  1  0  0  0  0
 23 24  2  0  0  0  0
 24 25  1  0  0  0  0
 25 26  2  0  0  0  0
M  END
$$$$
