Z4540472702
 OpenBabel05312420112D

 24 26  0  0  0  0  0  0  0  0999 V2000
   28.4635   -7.3385    0.0000 C   0  0  0  0  0  0  0  0  0  0  0  0
   28.4635   -8.8385    0.0000 O   0  0  0  0  0  0  0  0  0  0  0  0
   27.1644   -9.5885    0.0000 C   0  0  0  0  0  0  0  0  0  0  0  0
   27.1644  -11.0885    0.0000 C   0  0  0  0  0  0  0  0  0  0  0  0
   28.4635  -11.8385    0.0000 C   0  0  0  0  0  0  0  0  0  0  0  0
   28.4635  -13.3385    0.0000 C   0  0  0  0  0  0  0  0  0  0  0  0
   27.1644  -14.0885    0.0000 C   0  0  0  0  0  0  0  0  0  0  0  0
   25.8653  -13.3385    0.0000 C   0  0  0  0  0  0  0  0  0  0  0  0
   24.5662  -14.0885    0.0000 C   0  0  0  0  0  0  0  0  0  0  0  0
   23.2673  -13.3385    0.0000 C   0  0  0  0  0  0  0  0  0  0  0  0
   23.2673  -11.8385    0.0000 O   0  0  0  0  0  0  0  0  0  0  0  0
   21.9682  -14.0885    0.0000 N   0  0  0  0  0  0  0  0  0  0  0  0
   21.9682  -15.5885    0.0000 C   0  0  0  0  0  0  0  0  0  0  0  0
   23.2673  -16.3385    0.0000 C   0  0  0  0  0  0  0  0  0  0  0  0
   23.2673  -17.8385    0.0000 C   0  0  0  0  0  0  0  0  0  0  0  0
   21.9682  -18.5885    0.0000 C   0  0  0  0  0  0  0  0  0  0  0  0
   20.6693  -17.8385    0.0000 C   0  0  0  0  0  0  0  0  0  0  0  0
   20.6693  -16.3385    0.0000 C   0  0  0  0  0  0  0  0  0  0  0  0
   21.9682  -20.0885    0.0000 C   0  0  0  0  0  0  0  0  0  0  0  0
   23.1818  -20.9702    0.0000 C   0  0  0  0  0  0  0  0  0  0  0  0
   22.7182  -22.3967    0.0000 N   0  0  0  0  0  0  0  0  0  0  0  0
   21.2182  -22.3967    0.0000 N   0  0  0  0  0  0  0  0  0  0  0  0
   20.7547  -20.9702    0.0000 C   0  0  0  0  0  0  0  0  0  0  0  0
   25.8653  -11.8385    0.0000 C   0  0  0  0  0  0  0  0  0  0  0  0
  1  2  1  0  0  0  0
  2  3  1  0  0  0  0
  3  4  1  0  0  0  0
  4  5  2  0  0  0  0
  4 24  1  0  0  0  0
  5  6  1  0  0  0  0
  6  7  2  0  0  0  0
  7  8  1  0  0  0  0
  8  9  1  0  0  0  0
  8 24  2  0  0  0  0
  9 10  1  0  0  0  0
 10 11  2  0  0  0  0
 10 12  1  0  0  0  0
 12 13  1  0  0  0  0
 13 14  2  0  0  0  0
 13 18  1  0  0  0  0
 14 15  1  0  0  0  0
 15 16  2  0  0  0  0
 16 17  1  0  0  0  0
 16 19  1  0  0  0  0
 17 18  2  0  0  0  0
 19 20  2  0  0  0  0
 19 23  1  0  0  0  0
 20 21  1  0  0  0  0
 21 22  1  0  0  0  0
 22 23  2  0  0  0  0
M  END
$$$$
