Z4540473717
 OpenBabel05312420242D

 28 31  0  0  0  0  0  0  0  0999 V2000
   21.4195  -15.6750    0.0000 O   0  0  0  0  0  0  0  0  0  0  0  0
   22.7185  -14.9250    0.0000 C   0  0  0  0  0  0  0  0  0  0  0  0
   24.0176  -15.6750    0.0000 N   0  0  0  0  0  0  0  0  0  0  0  0
   24.0176  -17.1751    0.0000 C   0  0  0  0  0  0  0  0  0  0  0  0
   25.3165  -17.9251    0.0000 C   0  0  0  0  0  0  0  0  0  0  0  0
   26.6156  -17.1751    0.0000 C   0  0  0  0  0  0  0  0  0  0  0  0
   27.9147  -17.9251    0.0000 C   0  0  0  0  0  0  0  0  0  0  0  0
   27.9147  -19.4251    0.0000 C   0  0  0  0  0  0  0  0  0  0  0  0
   26.6156  -20.1751    0.0000 C   0  0  0  0  0  0  0  0  0  0  0  0
   25.3165  -19.4251    0.0000 C   0  0  0  0  0  0  0  0  0  0  0  0
   24.0176  -20.1751    0.0000 C   0  0  0  0  0  0  0  0  0  0  0  0
   24.0176  -21.6751    0.0000 N   0  0  0  0  0  0  0  0  0  0  0  0
   25.2311  -22.5568    0.0000 C   0  0  0  0  0  0  0  0  0  0  0  0
   24.7676  -23.9833    0.0000 C   0  0  0  0  0  0  0  0  0  0  0  0
   23.2676  -23.9833    0.0000 C   0  0  0  0  0  0  0  0  0  0  0  0
   22.8041  -22.5568    0.0000 C   0  0  0  0  0  0  0  0  0  0  0  0
   21.3775  -22.0931    0.0000 O   0  0  0  0  0  0  0  0  0  0  0  0
   22.7185  -13.4250    0.0000 C   0  0  0  0  0  0  0  0  0  0  0  0
   21.4195  -12.6750    0.0000 C   0  0  0  0  0  0  0  0  0  0  0  0
   21.4195  -11.1750    0.0000 C   0  0  0  0  0  0  0  0  0  0  0  0
   22.7185  -10.4250    0.0000 C   0  0  0  0  0  0  0  0  0  0  0  0
   24.0176  -11.1750    0.0000 C   0  0  0  0  0  0  0  0  0  0  0  0
   24.0176  -12.6750    0.0000 C   0  0  0  0  0  0  0  0  0  0  0  0
   22.7185   -8.9249    0.0000 C   0  0  0  0  0  0  0  0  0  0  0  0
   21.5050   -8.0433    0.0000 C   0  0  0  0  0  0  0  0  0  0  0  0
   21.9685   -6.6167    0.0000 N   0  0  0  0  0  0  0  0  0  0  0  0
   23.4685   -6.6167    0.0000 N   0  0  0  0  0  0  0  0  0  0  0  0
   23.9321   -8.0433    0.0000 C   0  0  0  0  0  0  0  0  0  0  0  0
  1  2  2  0  0  0  0
  2  3  1  0  0  0  0
  2 18  1  0  0  0  0
  3  4  1  0  0  0  0
  4  5  1  0  0  0  0
  5  6  2  0  0  0  0
  5 10  1  0  0  0  0
  6  7  1  0  0  0  0
  7  8  2  0  0  0  0
  8  9  1  0  0  0  0
  9 10  2  0  0  0  0
 10 11  1  0  0  0  0
 11 12  1  0  0  0  0
 12 13  1  0  0  0  0
 12 16  1  0  0  0  0
 13 14  1  0  0  0  0
 14 15  1  0  0  0  0
 15 16  1  0  0  0  0
 16 17  2  0  0  0  0
 18 19  2  0  0  0  0
 18 23  1  0  0  0  0
 19 20  1  0  0  0  0
 20 21  2  0  0  0  0
 21 22  1  0  0  0  0
 21 24  1  0  0  0  0
 22 23  2  0  0  0  0
 24 25  2  0  0  0  0
 24 28  1  0  0  0  0
 25 26  1  0  0  0  0
 26 27  1  0  0  0  0
 27 28  2  0  0  0  0
M  END
$$$$
