Z4540473531
 OpenBabel05312420342D

 24 27  0  0  0  0  0  0  0  0999 V2000
   19.8132  -13.3992    0.0000 C   0  0  0  0  0  0  0  0  0  0  0  0
   21.1092  -12.6509    0.0000 O   0  0  0  0  0  0  0  0  0  0  0  0
   22.4054  -13.3992    0.0000 N   0  0  0  0  0  0  0  0  0  0  0  0
   22.4054  -14.8958    0.0000 C   0  0  0  0  0  0  0  0  0  0  0  0
   23.7014  -15.6441    0.0000 C   0  0  3  0  0  0  0  0  0  0  0  0
   23.7014  -17.1406    0.0000 C   0  0  0  0  0  0  0  0  0  0  0  0
   24.9974  -17.8889    0.0000 C   0  0  3  0  0  0  0  0  0  0  0  0
   26.2935  -17.1406    0.0000 C   0  0  0  0  0  0  0  0  0  0  0  0
   26.2935  -15.6441    0.0000 C   0  0  0  0  0  0  0  0  0  0  0  0
   24.9974  -14.8958    0.0000 C   0  0  3  0  0  0  0  0  0  0  0  0
   24.6233  -16.3925    0.0000 C   0  0  0  0  0  0  0  0  0  0  0  0
   23.7014  -12.6509    0.0000 C   0  0  0  0  0  0  0  0  0  0  0  0
   24.9974  -13.3992    0.0000 O   0  0  0  0  0  0  0  0  0  0  0  0
   23.7014  -11.1542    0.0000 C   0  0  0  0  0  0  0  0  0  0  0  0
   22.4054  -10.4059    0.0000 C   0  0  0  0  0  0  0  0  0  0  0  0
   22.4054   -8.9092    0.0000 C   0  0  0  0  0  0  0  0  0  0  0  0
   23.7014   -8.1609    0.0000 C   0  0  0  0  0  0  0  0  0  0  0  0
   24.9974   -8.9092    0.0000 C   0  0  0  0  0  0  0  0  0  0  0  0
   24.9974  -10.4059    0.0000 C   0  0  0  0  0  0  0  0  0  0  0  0
   23.7014   -6.6643    0.0000 C   0  0  0  0  0  0  0  0  0  0  0  0
   22.4906   -5.7846    0.0000 C   0  0  0  0  0  0  0  0  0  0  0  0
   22.9530   -4.3611    0.0000 N   0  0  0  0  0  0  0  0  0  0  0  0
   24.4497   -4.3611    0.0000 N   0  0  0  0  0  0  0  0  0  0  0  0
   24.9121   -5.7846    0.0000 C   0  0  0  0  0  0  0  0  0  0  0  0
  1  2  1  0  0  0  0
  2  3  1  0  0  0  0
  3  4  1  0  0  0  0
  3 12  1  0  0  0  0
  4  5  1  0  0  0  0
  5  6  1  0  0  0  0
  5 10  1  0  0  0  0
  6  7  1  0  0  0  0
  7  8  1  0  0  0  0
  7 11  1  0  0  0  0
  8  9  1  0  0  0  0
  9 10  1  0  0  0  0
 10 11  1  0  0  0  0
 12 13  2  0  0  0  0
 12 14  1  0  0  0  0
 14 15  2  0  0  0  0
 14 19  1  0  0  0  0
 15 16  1  0  0  0  0
 16 17  2  0  0  0  0
 17 18  1  0  0  0  0
 17 20  1  0  0  0  0
 18 19  2  0  0  0  0
 20 21  2  0  0  0  0
 20 24  1  0  0  0  0
 21 22  1  0  0  0  0
 22 23  1  0  0  0  0
 23 24  2  0  0  0  0
M  END
$$$$
