Z4540472670
 OpenBabel05312420372D

 27 30  0  0  0  0  0  0  0  0999 V2000
   24.5667  -14.2405    0.0000 O   0  0  0  0  0  0  0  0  0  0  0  0
   23.2675  -13.4905    0.0000 C   0  0  0  0  0  0  0  0  0  0  0  0
   21.9686  -14.2405    0.0000 N   0  0  0  0  0  0  0  0  0  0  0  0
   21.9686  -15.7406    0.0000 C   0  0  0  0  0  0  0  0  0  0  0  0
   23.2675  -16.4906    0.0000 C   0  0  0  0  0  0  0  0  0  0  0  0
   23.2675  -17.9906    0.0000 C   0  0  0  0  0  0  0  0  0  0  0  0
   21.9686  -18.7406    0.0000 C   0  0  0  0  0  0  0  0  0  0  0  0
   20.6697  -17.9906    0.0000 C   0  0  0  0  0  0  0  0  0  0  0  0
   20.6697  -16.4906    0.0000 C   0  0  0  0  0  0  0  0  0  0  0  0
   21.9686  -20.2406    0.0000 C   0  0  0  0  0  0  0  0  0  0  0  0
   23.1821  -21.1223    0.0000 C   0  0  0  0  0  0  0  0  0  0  0  0
   22.7186  -22.5489    0.0000 N   0  0  0  0  0  0  0  0  0  0  0  0
   21.2186  -22.5489    0.0000 N   0  0  0  0  0  0  0  0  0  0  0  0
   20.7551  -21.1223    0.0000 C   0  0  0  0  0  0  0  0  0  0  0  0
   23.2675  -11.9905    0.0000 C   0  0  0  0  0  0  0  0  0  0  0  0
   21.9686  -11.2405    0.0000 C   0  0  0  0  0  0  0  0  0  0  0  0
   21.9686   -9.7404    0.0000 C   0  0  0  0  0  0  0  0  0  0  0  0
   23.2675   -8.9904    0.0000 C   0  0  0  0  0  0  0  0  0  0  0  0
   24.5667   -9.7404    0.0000 C   0  0  0  0  0  0  0  0  0  0  0  0
   24.5667  -11.2405    0.0000 C   0  0  0  0  0  0  0  0  0  0  0  0
   25.8656   -8.9904    0.0000 N   0  0  0  0  0  0  0  0  0  0  0  0
   26.0225   -7.4986    0.0000 C   0  0  0  0  0  0  0  0  0  0  0  0
   27.4898   -7.1869    0.0000 C   0  0  0  0  0  0  0  0  0  0  0  0
   28.2398   -8.4859    0.0000 C   0  0  0  0  0  0  0  0  0  0  0  0
   27.2360   -9.6006    0.0000 S   0  0  0  0  0  0  0  0  0  0  0  0
   28.2280  -10.7257    0.0000 O   0  0  0  0  0  0  0  0  0  0  0  0
   26.7874  -11.0321    0.0000 O   0  0  0  0  0  0  0  0  0  0  0  0
  1  2  2  0  0  0  0
  2  3  1  0  0  0  0
  2 15  1  0  0  0  0
  3  4  1  0  0  0  0
  4  5  2  0  0  0  0
  4  9  1  0  0  0  0
  5  6  1  0  0  0  0
  6  7  2  0  0  0  0
  7  8  1  0  0  0  0
  7 10  1  0  0  0  0
  8  9  2  0  0  0  0
 10 11  2  0  0  0  0
 10 14  1  0  0  0  0
 11 12  1  0  0  0  0
 12 13  1  0  0  0  0
 13 14  2  0  0  0  0
 15 16  2  0  0  0  0
 15 20  1  0  0  0  0
 16 17  1  0  0  0  0
 17 18  2  0  0  0  0
 18 19  1  0  0  0  0
 19 20  2  0  0  0  0
 19 21  1  0  0  0  0
 21 22  1  0  0  0  0
 21 25  1  0  0  0  0
 22 23  1  0  0  0  0
 23 24  1  0  0  0  0
 24 25  1  0  0  0  0
 25 26  2  0  0  0  0
 25 27  2  0  0  0  0
M  END
$$$$
