Z4540472138
 OpenBabel05312420392D

 25 28  0  0  0  0  0  0  0  0999 V2000
   23.2673  -22.5831    0.0000 O   0  0  0  0  0  0  0  0  0  0  0  0
   23.2673  -21.0831    0.0000 C   0  0  0  0  0  0  0  0  0  0  0  0
   21.9682  -20.3331    0.0000 N   0  0  0  0  0  0  0  0  0  0  0  0
   21.9682  -18.8331    0.0000 C   0  0  0  0  0  0  0  0  0  0  0  0
   23.2673  -18.0830    0.0000 C   0  0  0  0  0  0  0  0  0  0  0  0
   24.5662  -18.8331    0.0000 C   0  0  0  0  0  0  0  0  0  0  0  0
   25.8653  -18.0830    0.0000 C   0  0  0  0  0  0  0  0  0  0  0  0
   27.1644  -18.8331    0.0000 C   0  0  0  0  0  0  0  0  0  0  0  0
   28.4635  -18.0830    0.0000 N   0  0  0  0  0  0  0  0  0  0  0  0
   28.4635  -16.5830    0.0000 C   0  0  0  0  0  0  0  0  0  0  0  0
   29.7626  -15.8330    0.0000 C   0  0  0  0  0  0  0  0  0  0  0  0
   29.9193  -14.3412    0.0000 C   0  0  0  0  0  0  0  0  0  0  0  0
   31.3866  -14.0296    0.0000 N   0  0  0  0  0  0  0  0  0  0  0  0
   31.9966  -12.6592    0.0000 C   0  0  0  0  0  0  0  0  0  0  0  0
   33.4884  -12.5023    0.0000 C   0  0  0  0  0  0  0  0  0  0  0  0
   34.0986  -11.1321    0.0000 C   0  0  0  0  0  0  0  0  0  0  0  0
   35.5904  -10.9752    0.0000 C   0  0  0  0  0  0  0  0  0  0  0  0
   36.4719  -12.1889    0.0000 C   0  0  0  0  0  0  0  0  0  0  0  0
   35.8619  -13.5590    0.0000 C   0  0  0  0  0  0  0  0  0  0  0  0
   34.3700  -13.7160    0.0000 C   0  0  0  0  0  0  0  0  0  0  0  0
   32.1366  -15.3285    0.0000 N   0  0  0  0  0  0  0  0  0  0  0  0
   31.1328  -16.4432    0.0000 C   0  0  0  0  0  0  0  0  0  0  0  0
   27.1644  -20.3331    0.0000 C   0  0  0  0  0  0  0  0  0  0  0  0
   25.8653  -21.0831    0.0000 C   0  0  0  0  0  0  0  0  0  0  0  0
   24.5662  -20.3331    0.0000 C   0  0  0  0  0  0  0  0  0  0  0  0
  1  2  2  0  0  0  0
  2  3  1  0  0  0  0
  2 25  1  0  0  0  0
  3  4  1  0  0  0  0
  4  5  2  0  0  0  0
  5  6  1  0  0  0  0
  6  7  2  0  0  0  0
  6 25  1  0  0  0  0
  7  8  1  0  0  0  0
  8  9  1  0  0  0  0
  8 23  2  0  0  0  0
  9 10  1  0  0  0  0
 10 11  1  0  0  0  0
 11 12  2  0  0  0  0
 11 22  1  0  0  0  0
 12 13  1  0  0  0  0
 13 14  1  0  0  0  0
 13 21  1  0  0  0  0
 14 15  1  0  0  0  0
 15 16  2  0  0  0  0
 15 20  1  0  0  0  0
 16 17  1  0  0  0  0
 17 18  2  0  0  0  0
 18 19  1  0  0  0  0
 19 20  2  0  0  0  0
 21 22  2  0  0  0  0
 23 24  1  0  0  0  0
 24 25  2  0  0  0  0
M  END
$$$$
