Z4540472173
 OpenBabel05312420382D

 23 25  0  0  0  0  0  0  0  0999 V2000
   24.2892   -8.1199    0.0000 C   0  0  0  0  0  0  0  0  0  0  0  0
   24.2892   -9.6200    0.0000 C   0  0  0  0  0  0  0  0  0  0  0  0
   22.9902  -10.3700    0.0000 C   0  0  0  0  0  0  0  0  0  0  0  0
   22.9902  -11.8700    0.0000 N   0  0  0  0  0  0  0  0  0  0  0  0
   24.2037  -12.7517    0.0000 C   0  0  0  0  0  0  0  0  0  0  0  0
   23.7403  -14.1783    0.0000 C   0  0  0  0  0  0  0  0  0  0  0  0
   22.2404  -14.1783    0.0000 C   0  0  0  0  0  0  0  0  0  0  0  0
   21.3586  -15.3917    0.0000 C   0  0  0  0  0  0  0  0  0  0  0  0
   21.9688  -16.7621    0.0000 N   0  0  0  0  0  0  0  0  0  0  0  0
   23.4604  -16.9189    0.0000 C   0  0  0  0  0  0  0  0  0  0  0  0
   24.3421  -15.7054    0.0000 O   0  0  0  0  0  0  0  0  0  0  0  0
   24.0704  -18.2893    0.0000 C   0  0  0  0  0  0  0  0  0  0  0  0
   25.5623  -18.4462    0.0000 C   0  0  0  0  0  0  0  0  0  0  0  0
   26.1723  -19.8164    0.0000 C   0  0  0  0  0  0  0  0  0  0  0  0
   25.2908  -21.0301    0.0000 C   0  0  0  0  0  0  0  0  0  0  0  0
   23.7990  -20.8732    0.0000 C   0  0  0  0  0  0  0  0  0  0  0  0
   23.1888  -19.5029    0.0000 C   0  0  0  0  0  0  0  0  0  0  0  0
   25.9009  -22.4005    0.0000 C   0  0  0  0  0  0  0  0  0  0  0  0
   27.3682  -22.7123    0.0000 C   0  0  0  0  0  0  0  0  0  0  0  0
   27.5249  -24.2040    0.0000 N   0  0  0  0  0  0  0  0  0  0  0  0
   26.1545  -24.8142    0.0000 N   0  0  0  0  0  0  0  0  0  0  0  0
   25.1508  -23.6994    0.0000 C   0  0  0  0  0  0  0  0  0  0  0  0
   21.7767  -12.7517    0.0000 N   0  0  0  0  0  0  0  0  0  0  0  0
  1  2  1  0  0  0  0
  2  3  1  0  0  0  0
  3  4  1  0  0  0  0
  4  5  1  0  0  0  0
  4 23  1  0  0  0  0
  5  6  2  0  0  0  0
  6  7  1  0  0  0  0
  7  8  1  0  0  0  0
  7 23  2  0  0  0  0
  8  9  1  0  0  0  0
  9 10  1  0  0  0  0
 10 11  2  0  0  0  0
 10 12  1  0  0  0  0
 12 13  2  0  0  0  0
 12 17  1  0  0  0  0
 13 14  1  0  0  0  0
 14 15  2  0  0  0  0
 15 16  1  0  0  0  0
 15 18  1  0  0  0  0
 16 17  2  0  0  0  0
 18 19  2  0  0  0  0
 18 22  1  0  0  0  0
 19 20  1  0  0  0  0
 20 21  1  0  0  0  0
 21 22  2  0  0  0  0
M  END
$$$$
