Z4540473631
 OpenBabel05312420192D

 24 26  0  0  0  0  0  0  0  0999 V2000
   18.0716  -13.7709    0.0000 C   0  0  0  0  0  0  0  0  0  0  0  0
   19.3705  -13.0209    0.0000 S   0  0  0  0  0  0  0  0  0  0  0  0
   19.3705  -11.5209    0.0000 C   0  0  0  0  0  0  0  0  0  0  0  0
   18.0716  -10.7709    0.0000 C   0  0  0  0  0  0  0  0  0  0  0  0
   18.0716   -9.2709    0.0000 C   0  0  0  0  0  0  0  0  0  0  0  0
   19.3705   -8.5208    0.0000 C   0  0  0  0  0  0  0  0  0  0  0  0
   20.6697   -9.2709    0.0000 C   0  0  0  0  0  0  0  0  0  0  0  0
   21.9686   -8.5208    0.0000 F   0  0  0  0  0  0  0  0  0  0  0  0
   20.6697  -10.7709    0.0000 C   0  0  0  0  0  0  0  0  0  0  0  0
   21.9686  -11.5209    0.0000 C   0  0  0  0  0  0  0  0  0  0  0  0
   21.9686  -13.0209    0.0000 N   0  0  0  0  0  0  0  0  0  0  0  0
   23.2675  -13.7709    0.0000 C   0  0  0  0  0  0  0  0  0  0  0  0
   24.5666  -13.0209    0.0000 O   0  0  0  0  0  0  0  0  0  0  0  0
   23.2675  -15.2710    0.0000 C   0  0  0  0  0  0  0  0  0  0  0  0
   24.5666  -16.0210    0.0000 C   0  0  0  0  0  0  0  0  0  0  0  0
   24.5666  -17.5210    0.0000 C   0  0  0  0  0  0  0  0  0  0  0  0
   23.2675  -18.2710    0.0000 C   0  0  0  0  0  0  0  0  0  0  0  0
   21.9686  -17.5210    0.0000 C   0  0  0  0  0  0  0  0  0  0  0  0
   21.9686  -16.0210    0.0000 C   0  0  0  0  0  0  0  0  0  0  0  0
   23.2675  -19.7711    0.0000 C   0  0  0  0  0  0  0  0  0  0  0  0
   24.4812  -20.6527    0.0000 C   0  0  0  0  0  0  0  0  0  0  0  0
   24.0175  -22.0793    0.0000 N   0  0  0  0  0  0  0  0  0  0  0  0
   22.5175  -22.0793    0.0000 N   0  0  0  0  0  0  0  0  0  0  0  0
   22.0541  -20.6527    0.0000 C   0  0  0  0  0  0  0  0  0  0  0  0
  1  2  1  0  0  0  0
  2  3  1  0  0  0  0
  3  4  2  0  0  0  0
  3  9  1  0  0  0  0
  4  5  1  0  0  0  0
  5  6  2  0  0  0  0
  6  7  1  0  0  0  0
  7  8  1  0  0  0  0
  7  9  2  0  0  0  0
  9 10  1  0  0  0  0
 10 11  1  0  0  0  0
 11 12  1  0  0  0  0
 12 13  2  0  0  0  0
 12 14  1  0  0  0  0
 14 15  2  0  0  0  0
 14 19  1  0  0  0  0
 15 16  1  0  0  0  0
 16 17  2  0  0  0  0
 17 18  1  0  0  0  0
 17 20  1  0  0  0  0
 18 19  2  0  0  0  0
 20 21  2  0  0  0  0
 20 24  1  0  0  0  0
 21 22  1  0  0  0  0
 22 23  1  0  0  0  0
 23 24  2  0  0  0  0
M  END
$$$$
