Z4540473508
 OpenBabel05312420352D

 23 25  0  0  0  0  0  0  0  0999 V2000
   20.4842   -2.2496    0.0000 C   0  0  0  0  0  0  0  0  0  0  0  0
   20.4842   -3.7497    0.0000 O   0  0  0  0  0  0  0  0  0  0  0  0
   21.7832   -4.4997    0.0000 C   0  0  0  0  0  0  0  0  0  0  0  0
   21.7832   -5.9997    0.0000 C   0  0  0  0  0  0  0  0  0  0  0  0
   22.9968   -6.8813    0.0000 N   0  0  0  0  0  0  0  0  0  0  0  0
   22.5332   -8.3079    0.0000 C   0  0  0  0  0  0  0  0  0  0  0  0
   23.4148   -9.5213    0.0000 C   0  0  0  0  0  0  0  0  0  0  0  0
   22.8048  -10.8917    0.0000 N   0  0  0  0  0  0  0  0  0  0  0  0
   23.6864  -12.1052    0.0000 C   0  0  0  0  0  0  0  0  0  0  0  0
   25.1783  -11.9485    0.0000 O   0  0  0  0  0  0  0  0  0  0  0  0
   23.0764  -13.4756    0.0000 C   0  0  0  0  0  0  0  0  0  0  0  0
   23.9581  -14.6892    0.0000 C   0  0  0  0  0  0  0  0  0  0  0  0
   23.3479  -16.0596    0.0000 C   0  0  0  0  0  0  0  0  0  0  0  0
   21.8561  -16.2163    0.0000 C   0  0  0  0  0  0  0  0  0  0  0  0
   20.9744  -15.0027    0.0000 C   0  0  0  0  0  0  0  0  0  0  0  0
   21.5846  -13.6325    0.0000 C   0  0  0  0  0  0  0  0  0  0  0  0
   21.2461  -17.5867    0.0000 C   0  0  0  0  0  0  0  0  0  0  0  0
   21.9961  -18.8856    0.0000 C   0  0  0  0  0  0  0  0  0  0  0  0
   20.9924  -20.0004    0.0000 N   0  0  0  0  0  0  0  0  0  0  0  0
   19.6220  -19.3902    0.0000 N   0  0  0  0  0  0  0  0  0  0  0  0
   19.7788  -17.8985    0.0000 C   0  0  0  0  0  0  0  0  0  0  0  0
   21.0332   -8.3079    0.0000 C   0  0  0  0  0  0  0  0  0  0  0  0
   20.5697   -6.8813    0.0000 S   0  0  0  0  0  0  0  0  0  0  0  0
  1  2  1  0  0  0  0
  2  3  1  0  0  0  0
  3  4  1  0  0  0  0
  4  5  2  0  0  0  0
  4 23  1  0  0  0  0
  5  6  1  0  0  0  0
  6  7  1  0  0  0  0
  6 22  2  0  0  0  0
  7  8  1  0  0  0  0
  8  9  1  0  0  0  0
  9 10  2  0  0  0  0
  9 11  1  0  0  0  0
 11 12  2  0  0  0  0
 11 16  1  0  0  0  0
 12 13  1  0  0  0  0
 13 14  2  0  0  0  0
 14 15  1  0  0  0  0
 14 17  1  0  0  0  0
 15 16  2  0  0  0  0
 17 18  2  0  0  0  0
 17 21  1  0  0  0  0
 18 19  1  0  0  0  0
 19 20  1  0  0  0  0
 20 21  2  0  0  0  0
 22 23  1  0  0  0  0
M  END
$$$$
