Z4540472882
 OpenBabel05312420442D

 27 29  0  0  0  0  0  0  0  0999 V2000
    7.6238   -3.7565    0.0000 C   0  0  0  0  0  0  0  0  0  0  0  0
    8.9230   -4.5065    0.0000 O   0  0  0  0  0  0  0  0  0  0  0  0
    8.9230   -6.0066    0.0000 C   0  0  0  0  0  0  0  0  0  0  0  0
    7.4229   -6.0066    0.0000 F   0  0  0  0  0  0  0  0  0  0  0  0
   10.4228   -6.0066    0.0000 F   0  0  0  0  0  0  0  0  0  0  0  0
    8.9230   -7.5066    0.0000 C   0  0  0  0  0  0  0  0  0  0  0  0
    7.4229   -7.5066    0.0000 F   0  0  0  0  0  0  0  0  0  0  0  0
   10.4228   -7.5066    0.0000 F   0  0  0  0  0  0  0  0  0  0  0  0
    8.9230   -9.0067    0.0000 C   0  0  0  0  0  0  0  0  0  0  0  0
   10.2219   -9.7567    0.0000 C   0  0  0  0  0  0  0  0  0  0  0  0
   10.2219  -11.2567    0.0000 C   0  0  0  0  0  0  0  0  0  0  0  0
    8.9230  -12.0067    0.0000 C   0  0  0  0  0  0  0  0  0  0  0  0
    8.9230  -13.5068    0.0000 C   0  0  0  0  0  0  0  0  0  0  0  0
   10.2219  -14.2568    0.0000 N   0  0  0  0  0  0  0  0  0  0  0  0
   10.2219  -15.7568    0.0000 C   0  0  0  0  0  0  0  0  0  0  0  0
    8.9230  -16.5069    0.0000 C   0  0  0  0  0  0  0  0  0  0  0  0
    8.9230  -18.0069    0.0000 C   0  0  0  0  0  0  0  0  0  0  0  0
   10.2219  -18.7569    0.0000 C   0  0  0  0  0  0  0  0  0  0  0  0
   11.5208  -18.0069    0.0000 C   0  0  0  0  0  0  0  0  0  0  0  0
   11.5208  -16.5069    0.0000 C   0  0  0  0  0  0  0  0  0  0  0  0
   12.8200  -15.7568    0.0000 C   0  0  0  0  0  0  0  0  0  0  0  0
   14.1189  -16.5069    0.0000 C   0  0  0  0  0  0  0  0  0  0  0  0
   14.1189  -18.0069    0.0000 N   0  0  0  0  0  0  0  0  0  0  0  0
   12.8200  -18.7569    0.0000 C   0  0  0  0  0  0  0  0  0  0  0  0
   12.8200  -20.2570    0.0000 O   0  0  0  0  0  0  0  0  0  0  0  0
    7.6238  -11.2567    0.0000 C   0  0  0  0  0  0  0  0  0  0  0  0
    7.6238   -9.7567    0.0000 C   0  0  0  0  0  0  0  0  0  0  0  0
  1  2  1  0  0  0  0
  2  3  1  0  0  0  0
  3  4  1  0  0  0  0
  3  5  1  0  0  0  0
  3  6  1  0  0  0  0
  6  7  1  0  0  0  0
  6  8  1  0  0  0  0
  6  9  1  0  0  0  0
  9 10  2  0  0  0  0
  9 27  1  0  0  0  0
 10 11  1  0  0  0  0
 11 12  2  0  0  0  0
 12 13  1  0  0  0  0
 12 26  1  0  0  0  0
 13 14  1  0  0  0  0
 14 15  1  0  0  0  0
 15 16  2  0  0  0  0
 15 20  1  0  0  0  0
 16 17  1  0  0  0  0
 17 18  2  0  0  0  0
 18 19  1  0  0  0  0
 19 20  2  0  0  0  0
 19 24  1  0  0  0  0
 20 21  1  0  0  0  0
 21 22  1  0  0  0  0
 22 23  1  0  0  0  0
 23 24  1  0  0  0  0
 24 25  2  0  0  0  0
 26 27  2  0  0  0  0
M  END
$$$$
