Z4540473602
 OpenBabel05312420202D

 25 28  0  0  0  0  0  0  0  0999 V2000
    6.1239  -12.3574    0.0000 C   0  0  0  0  0  0  0  0  0  0  0  0
    7.4228  -13.1074    0.0000 C   0  0  3  0  0  0  0  0  0  0  0  0
    8.7219  -12.3574    0.0000 N   0  0  0  0  0  0  0  0  0  0  0  0
    8.7219  -10.8574    0.0000 C   0  0  0  0  0  0  0  0  0  0  0  0
    7.4228  -10.1074    0.0000 O   0  0  0  0  0  0  0  0  0  0  0  0
   10.0208  -10.1074    0.0000 C   0  0  0  0  0  0  0  0  0  0  0  0
   10.0208   -8.6074    0.0000 C   0  0  0  0  0  0  0  0  0  0  0  0
   11.3199   -7.8574    0.0000 C   0  0  0  0  0  0  0  0  0  0  0  0
   12.6190   -8.6074    0.0000 C   0  0  0  0  0  0  0  0  0  0  0  0
   12.6190  -10.1074    0.0000 C   0  0  0  0  0  0  0  0  0  0  0  0
   11.3199  -10.8574    0.0000 C   0  0  0  0  0  0  0  0  0  0  0  0
   13.9181   -7.8574    0.0000 C   0  0  0  0  0  0  0  0  0  0  0  0
   14.0749   -6.3655    0.0000 C   0  0  0  0  0  0  0  0  0  0  0  0
   15.5422   -6.0539    0.0000 N   0  0  0  0  0  0  0  0  0  0  0  0
   16.2922   -7.3528    0.0000 N   0  0  0  0  0  0  0  0  0  0  0  0
   15.2883   -8.4676    0.0000 C   0  0  0  0  0  0  0  0  0  0  0  0
    7.4228  -14.6075    0.0000 C   0  0  3  0  0  0  0  0  0  0  0  0
    8.1728  -15.9064    0.0000 C   0  0  0  0  0  0  0  0  0  0  0  0
    6.6728  -15.9064    0.0000 C   0  0  3  0  0  0  0  0  0  0  0  0
    5.3739  -16.6564    0.0000 C   0  0  0  0  0  0  0  0  0  0  0  0
    5.3739  -18.1564    0.0000 C   0  0  0  0  0  0  0  0  0  0  0  0
    4.0750  -18.9064    0.0000 C   0  0  0  0  0  0  0  0  0  0  0  0
    2.7758  -18.1564    0.0000 C   0  0  0  0  0  0  0  0  0  0  0  0
    2.7758  -16.6564    0.0000 C   0  0  0  0  0  0  0  0  0  0  0  0
    4.0750  -15.9064    0.0000 C   0  0  0  0  0  0  0  0  0  0  0  0
  1  2  1  0  0  0  0
  2  3  1  0  0  0  0
  2 17  1  0  0  0  0
  3  4  1  0  0  0  0
  4  5  2  0  0  0  0
  4  6  1  0  0  0  0
  6  7  2  0  0  0  0
  6 11  1  0  0  0  0
  7  8  1  0  0  0  0
  8  9  2  0  0  0  0
  9 10  1  0  0  0  0
  9 12  1  0  0  0  0
 10 11  2  0  0  0  0
 12 13  2  0  0  0  0
 12 16  1  0  0  0  0
 13 14  1  0  0  0  0
 14 15  1  0  0  0  0
 15 16  2  0  0  0  0
 17 18  1  0  0  0  0
 17 19  1  0  0  0  0
 18 19  1  0  0  0  0
 19 20  1  0  0  0  0
 20 21  2  0  0  0  0
 20 25  1  0  0  0  0
 21 22  1  0  0  0  0
 22 23  2  0  0  0  0
 23 24  1  0  0  0  0
 24 25  2  0  0  0  0
M  END
$$$$
