Z4540473654
 OpenBabel05312420332D

 25 27  0  0  0  0  0  0  0  0999 V2000
   29.7624  -17.4427    0.0000 C   0  0  0  0  0  0  0  0  0  0  0  0
   29.7624  -18.9427    0.0000 C   0  0  3  0  0  0  0  0  0  0  0  0
   28.4633  -19.6927    0.0000 C   0  0  0  0  0  0  0  0  0  0  0  0
   27.1642  -18.9427    0.0000 C   0  0  0  0  0  0  0  0  0  0  0  0
   25.8653  -19.6927    0.0000 C   0  0  0  0  0  0  0  0  0  0  0  0
   25.8653  -21.1927    0.0000 C   0  0  0  0  0  0  0  0  0  0  0  0
   24.5662  -21.9427    0.0000 C   0  0  0  0  0  0  0  0  0  0  0  0
   23.2672  -21.1927    0.0000 C   0  0  0  0  0  0  0  0  0  0  0  0
   21.9683  -21.9427    0.0000 O   0  0  0  0  0  0  0  0  0  0  0  0
   23.2672  -19.6927    0.0000 C   0  0  0  0  0  0  0  0  0  0  0  0
   24.5662  -18.9427    0.0000 C   0  0  0  0  0  0  0  0  0  0  0  0
   31.0615  -19.6927    0.0000 N   0  0  0  0  0  0  0  0  0  0  0  0
   32.3606  -18.9427    0.0000 C   0  0  0  0  0  0  0  0  0  0  0  0
   32.3606  -17.4427    0.0000 O   0  0  0  0  0  0  0  0  0  0  0  0
   33.6595  -19.6927    0.0000 C   0  0  0  0  0  0  0  0  0  0  0  0
   34.9586  -18.9427    0.0000 C   0  0  0  0  0  0  0  0  0  0  0  0
   36.2577  -19.6927    0.0000 C   0  0  0  0  0  0  0  0  0  0  0  0
   36.2577  -21.1927    0.0000 C   0  0  0  0  0  0  0  0  0  0  0  0
   34.9586  -21.9427    0.0000 C   0  0  0  0  0  0  0  0  0  0  0  0
   33.6595  -21.1927    0.0000 C   0  0  0  0  0  0  0  0  0  0  0  0
   37.5566  -21.9427    0.0000 C   0  0  0  0  0  0  0  0  0  0  0  0
   38.9270  -21.3325    0.0000 C   0  0  0  0  0  0  0  0  0  0  0  0
   39.9306  -22.4472    0.0000 N   0  0  0  0  0  0  0  0  0  0  0  0
   39.1806  -23.7462    0.0000 N   0  0  0  0  0  0  0  0  0  0  0  0
   37.7133  -23.4345    0.0000 C   0  0  0  0  0  0  0  0  0  0  0  0
  1  2  1  0  0  0  0
  2  3  1  0  0  0  0
  2 12  1  0  0  0  0
  3  4  1  0  0  0  0
  4  5  1  0  0  0  0
  5  6  2  0  0  0  0
  5 11  1  0  0  0  0
  6  7  1  0  0  0  0
  7  8  2  0  0  0  0
  8  9  1  0  0  0  0
  8 10  1  0  0  0  0
 10 11  2  0  0  0  0
 12 13  1  0  0  0  0
 13 14  2  0  0  0  0
 13 15  1  0  0  0  0
 15 16  2  0  0  0  0
 15 20  1  0  0  0  0
 16 17  1  0  0  0  0
 17 18  2  0  0  0  0
 18 19  1  0  0  0  0
 18 21  1  0  0  0  0
 19 20  2  0  0  0  0
 21 22  2  0  0  0  0
 21 25  1  0  0  0  0
 22 23  1  0  0  0  0
 23 24  1  0  0  0  0
 24 25  2  0  0  0  0
M  END
$$$$
