Z4540473297
 OpenBabel05312420402D

 23 25  0  0  0  0  0  0  0  0999 V2000
   31.9862   -6.9094    0.0000 F   0  0  0  0  0  0  0  0  0  0  0  0
   31.1045   -8.1229    0.0000 C   0  0  0  0  0  0  0  0  0  0  0  0
   29.8911   -7.2412    0.0000 F   0  0  0  0  0  0  0  0  0  0  0  0
   32.3180   -9.0047    0.0000 F   0  0  0  0  0  0  0  0  0  0  0  0
   30.2229   -9.3365    0.0000 C   0  0  0  0  0  0  0  0  0  0  0  0
   30.6864  -10.7631    0.0000 C   0  0  0  0  0  0  0  0  0  0  0  0
   29.4729  -11.6447    0.0000 C   0  0  0  0  0  0  0  0  0  0  0  0
   29.4729  -13.1447    0.0000 C   0  0  0  0  0  0  0  0  0  0  0  0
   28.1738  -13.8947    0.0000 N   0  0  0  0  0  0  0  0  0  0  0  0
   28.1738  -15.3947    0.0000 C   0  0  0  0  0  0  0  0  0  0  0  0
   29.4729  -16.1447    0.0000 O   0  0  0  0  0  0  0  0  0  0  0  0
   26.8747  -16.1447    0.0000 C   0  0  0  0  0  0  0  0  0  0  0  0
   26.8747  -17.6447    0.0000 C   0  0  0  0  0  0  0  0  0  0  0  0
   25.5758  -18.3947    0.0000 C   0  0  0  0  0  0  0  0  0  0  0  0
   24.2767  -17.6447    0.0000 C   0  0  0  0  0  0  0  0  0  0  0  0
   22.8501  -18.1084    0.0000 C   0  0  0  0  0  0  0  0  0  0  0  0
   22.3865  -19.5349    0.0000 O   0  0  0  0  0  0  0  0  0  0  0  0
   21.9683  -16.8947    0.0000 N   0  0  0  0  0  0  0  0  0  0  0  0
   22.8501  -15.6813    0.0000 C   0  0  0  0  0  0  0  0  0  0  0  0
   24.2767  -16.1447    0.0000 C   0  0  0  0  0  0  0  0  0  0  0  0
   25.5758  -15.3947    0.0000 C   0  0  0  0  0  0  0  0  0  0  0  0
   28.2594  -10.7631    0.0000 C   0  0  0  0  0  0  0  0  0  0  0  0
   28.7229   -9.3365    0.0000 S   0  0  0  0  0  0  0  0  0  0  0  0
  1  2  1  0  0  0  0
  2  3  1  0  0  0  0
  2  4  1  0  0  0  0
  2  5  1  0  0  0  0
  5  6  2  0  0  0  0
  5 23  1  0  0  0  0
  6  7  1  0  0  0  0
  7  8  1  0  0  0  0
  7 22  2  0  0  0  0
  8  9  1  0  0  0  0
  9 10  1  0  0  0  0
 10 11  2  0  0  0  0
 10 12  1  0  0  0  0
 12 13  2  0  0  0  0
 12 21  1  0  0  0  0
 13 14  1  0  0  0  0
 14 15  2  0  0  0  0
 15 16  1  0  0  0  0
 15 20  1  0  0  0  0
 16 17  2  0  0  0  0
 16 18  1  0  0  0  0
 18 19  1  0  0  0  0
 19 20  1  0  0  0  0
 20 21  2  0  0  0  0
 22 23  1  0  0  0  0
M  END
$$$$
