Z4540473138
 OpenBabel05312420152D

 25 27  0  0  0  0  0  0  0  0999 V2000
   13.9177  -12.5461    0.0000 C   0  0  0  0  0  0  0  0  0  0  0  0
   13.9177  -14.0461    0.0000 C   0  0  3  0  0  0  0  0  0  0  0  0
   12.6186  -14.7961    0.0000 C   0  0  0  0  0  0  0  0  0  0  0  0
   11.3197  -14.0461    0.0000 C   0  0  0  0  0  0  0  0  0  0  0  0
   10.0208  -14.7961    0.0000 C   0  0  0  0  0  0  0  0  0  0  0  0
    8.7217  -14.0461    0.0000 C   0  0  0  0  0  0  0  0  0  0  0  0
    8.7217  -12.5461    0.0000 C   0  0  0  0  0  0  0  0  0  0  0  0
    7.4228  -11.7961    0.0000 F   0  0  0  0  0  0  0  0  0  0  0  0
   10.0208  -11.7961    0.0000 C   0  0  0  0  0  0  0  0  0  0  0  0
   11.3197  -12.5461    0.0000 C   0  0  0  0  0  0  0  0  0  0  0  0
   12.6186  -11.7961    0.0000 F   0  0  0  0  0  0  0  0  0  0  0  0
   15.2166  -14.7961    0.0000 N   0  0  0  0  0  0  0  0  0  0  0  0
   16.5157  -14.0461    0.0000 C   0  0  0  0  0  0  0  0  0  0  0  0
   16.5157  -12.5461    0.0000 O   0  0  0  0  0  0  0  0  0  0  0  0
   17.8148  -14.7961    0.0000 C   0  0  0  0  0  0  0  0  0  0  0  0
   19.1139  -14.0461    0.0000 C   0  0  0  0  0  0  0  0  0  0  0  0
   20.4130  -14.7961    0.0000 C   0  0  0  0  0  0  0  0  0  0  0  0
   20.4130  -16.2961    0.0000 C   0  0  0  0  0  0  0  0  0  0  0  0
   19.1139  -17.0461    0.0000 C   0  0  0  0  0  0  0  0  0  0  0  0
   17.8148  -16.2961    0.0000 C   0  0  0  0  0  0  0  0  0  0  0  0
   21.7120  -17.0461    0.0000 C   0  0  0  0  0  0  0  0  0  0  0  0
   23.0823  -16.4359    0.0000 C   0  0  0  0  0  0  0  0  0  0  0  0
   24.0862  -17.5506    0.0000 N   0  0  0  0  0  0  0  0  0  0  0  0
   23.3362  -18.8496    0.0000 N   0  0  0  0  0  0  0  0  0  0  0  0
   21.8689  -18.5379    0.0000 C   0  0  0  0  0  0  0  0  0  0  0  0
  1  2  1  0  0  0  0
  2  3  1  0  0  0  0
  2 12  1  0  0  0  0
  3  4  1  0  0  0  0
  4  5  2  0  0  0  0
  4 10  1  0  0  0  0
  5  6  1  0  0  0  0
  6  7  2  0  0  0  0
  7  8  1  0  0  0  0
  7  9  1  0  0  0  0
  9 10  2  0  0  0  0
 10 11  1  0  0  0  0
 12 13  1  0  0  0  0
 13 14  2  0  0  0  0
 13 15  1  0  0  0  0
 15 16  2  0  0  0  0
 15 20  1  0  0  0  0
 16 17  1  0  0  0  0
 17 18  2  0  0  0  0
 18 19  1  0  0  0  0
 18 21  1  0  0  0  0
 19 20  2  0  0  0  0
 21 22  2  0  0  0  0
 21 25  1  0  0  0  0
 22 23  1  0  0  0  0
 23 24  1  0  0  0  0
 24 25  2  0  0  0  0
M  END
$$$$
