Z4540472556
 OpenBabel05312420412D

 24 26  0  0  0  0  0  0  0  0999 V2000
   10.0207  -18.7470    0.0000 F   0  0  0  0  0  0  0  0  0  0  0  0
   10.0207  -17.2470    0.0000 C   0  0  0  0  0  0  0  0  0  0  0  0
   11.3198  -16.4970    0.0000 F   0  0  0  0  0  0  0  0  0  0  0  0
    8.7217  -16.4970    0.0000 C   0  0  0  0  0  0  0  0  0  0  0  0
    7.4228  -17.2470    0.0000 C   0  0  0  0  0  0  0  0  0  0  0  0
    6.1237  -16.4970    0.0000 C   0  0  0  0  0  0  0  0  0  0  0  0
    6.1237  -14.9970    0.0000 C   0  0  0  0  0  0  0  0  0  0  0  0
    7.4228  -14.2470    0.0000 C   0  0  0  0  0  0  0  0  0  0  0  0
    7.4228  -12.7470    0.0000 C   0  0  0  0  0  0  0  0  0  0  0  0
    8.7217  -11.9969    0.0000 N   0  0  0  0  0  0  0  0  0  0  0  0
    8.7217  -10.4969    0.0000 C   0  0  0  0  0  0  0  0  0  0  0  0
    7.4228   -9.7469    0.0000 O   0  0  0  0  0  0  0  0  0  0  0  0
   10.0207   -9.7469    0.0000 C   0  0  0  0  0  0  0  0  0  0  0  0
   10.0207   -8.2469    0.0000 C   0  0  0  0  0  0  0  0  0  0  0  0
   11.3198   -7.4969    0.0000 C   0  0  0  0  0  0  0  0  0  0  0  0
   12.6187   -8.2469    0.0000 C   0  0  0  0  0  0  0  0  0  0  0  0
   13.9178   -7.4969    0.0000 C   0  0  0  0  0  0  0  0  0  0  0  0
   13.9178   -5.9969    0.0000 O   0  0  0  0  0  0  0  0  0  0  0  0
   15.2169   -8.2469    0.0000 N   0  0  0  0  0  0  0  0  0  0  0  0
   15.2169   -9.7469    0.0000 C   0  0  0  0  0  0  0  0  0  0  0  0
   13.9178  -10.4969    0.0000 C   0  0  0  0  0  0  0  0  0  0  0  0
   12.6187   -9.7469    0.0000 C   0  0  0  0  0  0  0  0  0  0  0  0
   11.3198  -10.4969    0.0000 C   0  0  0  0  0  0  0  0  0  0  0  0
    8.7217  -14.9970    0.0000 C   0  0  0  0  0  0  0  0  0  0  0  0
  1  2  1  0  0  0  0
  2  3  1  0  0  0  0
  2  4  1  0  0  0  0
  4  5  2  0  0  0  0
  4 24  1  0  0  0  0
  5  6  1  0  0  0  0
  6  7  2  0  0  0  0
  7  8  1  0  0  0  0
  8  9  1  0  0  0  0
  8 24  2  0  0  0  0
  9 10  1  0  0  0  0
 10 11  1  0  0  0  0
 11 12  2  0  0  0  0
 11 13  1  0  0  0  0
 13 14  2  0  0  0  0
 13 23  1  0  0  0  0
 14 15  1  0  0  0  0
 15 16  2  0  0  0  0
 16 17  1  0  0  0  0
 16 22  1  0  0  0  0
 17 18  2  0  0  0  0
 17 19  1  0  0  0  0
 19 20  1  0  0  0  0
 20 21  1  0  0  0  0
 21 22  1  0  0  0  0
 22 23  2  0  0  0  0
M  END
$$$$
