Z4540472373
 OpenBabel05312420232D

 25 27  0  0  0  0  0  0  0  0999 V2000
   15.4732   -8.1457    0.0000 F   0  0  0  0  0  0  0  0  0  0  0  0
   16.7723   -8.8958    0.0000 C   0  0  0  0  0  0  0  0  0  0  0  0
   18.0714   -8.1457    0.0000 C   0  0  0  0  0  0  0  0  0  0  0  0
   19.3703   -8.8958    0.0000 C   0  0  0  0  0  0  0  0  0  0  0  0
   19.3703  -10.3958    0.0000 C   0  0  0  0  0  0  0  0  0  0  0  0
   18.0714  -11.1458    0.0000 C   0  0  0  0  0  0  0  0  0  0  0  0
   16.7723  -10.3958    0.0000 C   0  0  0  0  0  0  0  0  0  0  0  0
   20.6694  -11.1458    0.0000 C   0  0  0  0  0  0  0  0  0  0  0  0
   19.9194  -12.4449    0.0000 F   0  0  0  0  0  0  0  0  0  0  0  0
   21.4195   -9.8467    0.0000 F   0  0  0  0  0  0  0  0  0  0  0  0
   21.9684  -11.8958    0.0000 C   0  0  0  0  0  0  0  0  0  0  0  0
   21.9684  -13.3958    0.0000 N   0  0  0  0  0  0  0  0  0  0  0  0
   23.2673  -14.1458    0.0000 C   0  0  0  0  0  0  0  0  0  0  0  0
   24.5664  -13.3958    0.0000 O   0  0  0  0  0  0  0  0  0  0  0  0
   23.2673  -15.6458    0.0000 C   0  0  0  0  0  0  0  0  0  0  0  0
   24.5664  -16.3958    0.0000 C   0  0  0  0  0  0  0  0  0  0  0  0
   24.5664  -17.8958    0.0000 C   0  0  0  0  0  0  0  0  0  0  0  0
   23.2673  -18.6458    0.0000 C   0  0  0  0  0  0  0  0  0  0  0  0
   21.9684  -17.8958    0.0000 C   0  0  0  0  0  0  0  0  0  0  0  0
   21.9684  -16.3958    0.0000 C   0  0  0  0  0  0  0  0  0  0  0  0
   23.2673  -20.1458    0.0000 C   0  0  0  0  0  0  0  0  0  0  0  0
   24.4809  -21.0275    0.0000 C   0  0  0  0  0  0  0  0  0  0  0  0
   24.0173  -22.4541    0.0000 N   0  0  0  0  0  0  0  0  0  0  0  0
   22.5173  -22.4541    0.0000 N   0  0  0  0  0  0  0  0  0  0  0  0
   22.0538  -21.0275    0.0000 C   0  0  0  0  0  0  0  0  0  0  0  0
  1  2  1  0  0  0  0
  2  3  2  0  0  0  0
  2  7  1  0  0  0  0
  3  4  1  0  0  0  0
  4  5  2  0  0  0  0
  5  6  1  0  0  0  0
  5  8  1  0  0  0  0
  6  7  2  0  0  0  0
  8  9  1  0  0  0  0
  8 10  1  0  0  0  0
  8 11  1  0  0  0  0
 11 12  1  0  0  0  0
 12 13  1  0  0  0  0
 13 14  2  0  0  0  0
 13 15  1  0  0  0  0
 15 16  2  0  0  0  0
 15 20  1  0  0  0  0
 16 17  1  0  0  0  0
 17 18  2  0  0  0  0
 18 19  1  0  0  0  0
 18 21  1  0  0  0  0
 19 20  2  0  0  0  0
 21 22  2  0  0  0  0
 21 25  1  0  0  0  0
 22 23  1  0  0  0  0
 23 24  1  0  0  0  0
 24 25  2  0  0  0  0
M  END
$$$$
