Z4540473457
 OpenBabel05312420222D

 24 26  0  0  0  0  0  0  0  0999 V2000
   33.9846  -19.9644    0.0000 O   0  0  0  0  0  0  0  0  0  0  0  0
   32.6855  -19.2144    0.0000 C   0  0  0  0  0  0  0  0  0  0  0  0
   32.6855  -17.7144    0.0000 C   0  0  3  0  0  0  0  0  0  0  0  0
   31.3864  -16.9644    0.0000 C   0  0  0  0  0  0  0  0  0  0  0  0
   30.0874  -17.7144    0.0000 N   0  0  0  0  0  0  0  0  0  0  0  0
   28.7883  -16.9644    0.0000 C   0  0  0  0  0  0  0  0  0  0  0  0
   28.7883  -15.4643    0.0000 O   0  0  0  0  0  0  0  0  0  0  0  0
   27.4894  -17.7144    0.0000 C   0  0  0  0  0  0  0  0  0  0  0  0
   27.4894  -19.2144    0.0000 C   0  0  0  0  0  0  0  0  0  0  0  0
   26.1905  -19.9644    0.0000 C   0  0  0  0  0  0  0  0  0  0  0  0
   24.8914  -19.2144    0.0000 C   0  0  0  0  0  0  0  0  0  0  0  0
   24.8914  -17.7144    0.0000 C   0  0  0  0  0  0  0  0  0  0  0  0
   26.1905  -16.9644    0.0000 C   0  0  0  0  0  0  0  0  0  0  0  0
   23.5925  -19.9644    0.0000 C   0  0  0  0  0  0  0  0  0  0  0  0
   23.4356  -21.4562    0.0000 C   0  0  0  0  0  0  0  0  0  0  0  0
   21.9683  -21.7678    0.0000 N   0  0  0  0  0  0  0  0  0  0  0  0
   21.2183  -20.4689    0.0000 N   0  0  0  0  0  0  0  0  0  0  0  0
   22.2221  -19.3542    0.0000 C   0  0  0  0  0  0  0  0  0  0  0  0
   33.9846  -16.9644    0.0000 C   0  0  0  0  0  0  0  0  0  0  0  0
   35.2837  -17.7144    0.0000 C   0  0  0  0  0  0  0  0  0  0  0  0
   36.6538  -17.1042    0.0000 C   0  0  0  0  0  0  0  0  0  0  0  0
   37.6577  -18.2189    0.0000 C   0  0  0  0  0  0  0  0  0  0  0  0
   36.9077  -19.5178    0.0000 C   0  0  0  0  0  0  0  0  0  0  0  0
   35.4404  -19.2062    0.0000 O   0  0  0  0  0  0  0  0  0  0  0  0
  1  2  1  0  0  0  0
  2  3  1  0  0  0  0
  3  4  1  0  0  0  0
  3 19  1  0  0  0  0
  4  5  1  0  0  0  0
  5  6  1  0  0  0  0
  6  7  2  0  0  0  0
  6  8  1  0  0  0  0
  8  9  2  0  0  0  0
  8 13  1  0  0  0  0
  9 10  1  0  0  0  0
 10 11  2  0  0  0  0
 11 12  1  0  0  0  0
 11 14  1  0  0  0  0
 12 13  2  0  0  0  0
 14 15  2  0  0  0  0
 14 18  1  0  0  0  0
 15 16  1  0  0  0  0
 16 17  1  0  0  0  0
 17 18  2  0  0  0  0
 19 20  1  0  0  0  0
 20 21  2  0  0  0  0
 20 24  1  0  0  0  0
 21 22  1  0  0  0  0
 22 23  2  0  0  0  0
 23 24  1  0  0  0  0
M  END
$$$$
