Z4540472356
 OpenBabel05312420172D

 25 28  0  0  0  0  0  0  0  0999 V2000
    8.3113  -11.5836    0.0000 O   0  0  0  0  0  0  0  0  0  0  0  0
    8.5719  -13.0609    0.0000 C   0  0  0  0  0  0  0  0  0  0  0  0
    7.4228  -14.0251    0.0000 N   0  0  0  0  0  0  0  0  0  0  0  0
    6.0131  -13.5120    0.0000 C   0  0  0  0  0  0  0  0  0  0  0  0
    4.8640  -14.4762    0.0000 C   0  0  0  0  0  0  0  0  0  0  0  0
    3.7151  -13.5120    0.0000 C   0  0  0  0  0  0  0  0  0  0  0  0
    3.9755  -12.0349    0.0000 C   0  0  0  0  0  0  0  0  0  0  0  0
    2.8264  -11.0707    0.0000 C   0  0  0  0  0  0  0  0  0  0  0  0
    3.0869   -9.5936    0.0000 C   0  0  0  0  0  0  0  0  0  0  0  0
    4.4966   -9.0805    0.0000 C   0  0  0  0  0  0  0  0  0  0  0  0
    5.6455  -10.0447    0.0000 C   0  0  0  0  0  0  0  0  0  0  0  0
    5.3851  -11.5218    0.0000 C   0  0  0  0  0  0  0  0  0  0  0  0
    5.6140  -15.7753    0.0000 C   0  0  0  0  0  0  0  0  0  0  0  0
    4.1140  -15.7753    0.0000 C   0  0  0  0  0  0  0  0  0  0  0  0
    9.9813  -13.5740    0.0000 C   0  0  0  0  0  0  0  0  0  0  0  0
   11.1304  -12.6096    0.0000 C   0  0  0  0  0  0  0  0  0  0  0  0
   12.5399  -13.1227    0.0000 C   0  0  0  0  0  0  0  0  0  0  0  0
   12.8004  -14.6000    0.0000 C   0  0  0  0  0  0  0  0  0  0  0  0
   11.6515  -15.5642    0.0000 C   0  0  0  0  0  0  0  0  0  0  0  0
   10.2419  -15.0511    0.0000 C   0  0  0  0  0  0  0  0  0  0  0  0
   14.2101  -15.1131    0.0000 C   0  0  0  0  0  0  0  0  0  0  0  0
   15.4535  -14.2742    0.0000 C   0  0  0  0  0  0  0  0  0  0  0  0
   16.6355  -15.1976    0.0000 N   0  0  0  0  0  0  0  0  0  0  0  0
   16.1224  -16.6073    0.0000 N   0  0  0  0  0  0  0  0  0  0  0  0
   14.6235  -16.5549    0.0000 C   0  0  0  0  0  0  0  0  0  0  0  0
  1  2  2  0  0  0  0
  2  3  1  0  0  0  0
  2 15  1  0  0  0  0
  3  4  1  0  0  0  0
  4  5  1  0  0  0  0
  5  6  1  0  0  0  0
  5 13  1  0  0  0  0
  5 14  1  0  0  0  0
  6  7  1  0  0  0  0
  7  8  2  0  0  0  0
  7 12  1  0  0  0  0
  8  9  1  0  0  0  0
  9 10  2  0  0  0  0
 10 11  1  0  0  0  0
 11 12  2  0  0  0  0
 13 14  1  0  0  0  0
 15 16  2  0  0  0  0
 15 20  1  0  0  0  0
 16 17  1  0  0  0  0
 17 18  2  0  0  0  0
 18 19  1  0  0  0  0
 18 21  1  0  0  0  0
 19 20  2  0  0  0  0
 21 22  2  0  0  0  0
 21 25  1  0  0  0  0
 22 23  1  0  0  0  0
 23 24  1  0  0  0  0
 24 25  2  0  0  0  0
M  END
$$$$
