Z851078508
 OpenBabel05312420452D

 26 29  0  0  0  0  0  0  0  0999 V2000
   14.4672  -16.2938    0.0000 C   0  0  0  0  0  0  0  0  0  0  0  0
   13.4635  -15.1791    0.0000 N   0  0  0  0  0  0  0  0  0  0  0  0
   13.9270  -13.7523    0.0000 C   0  0  0  0  0  0  0  0  0  0  0  0
   15.3941  -13.4405    0.0000 C   0  0  0  0  0  0  0  0  0  0  0  0
   16.3977  -14.5552    0.0000 O   0  0  0  0  0  0  0  0  0  0  0  0
   15.8577  -12.0139    0.0000 N   0  0  0  0  0  0  0  0  0  0  0  0
   14.8541  -10.8992    0.0000 C   0  0  0  0  0  0  0  0  0  0  0  0
   15.3176   -9.4726    0.0000 C   0  0  0  0  0  0  0  0  0  0  0  0
   16.7847   -9.1606    0.0000 C   0  0  0  0  0  0  0  0  0  0  0  0
   17.7885  -10.2755    0.0000 C   0  0  0  0  0  0  0  0  0  0  0  0
   17.3248  -11.7021    0.0000 C   0  0  0  0  0  0  0  0  0  0  0  0
   17.2483   -7.7340    0.0000 C   0  0  0  0  0  0  0  0  0  0  0  0
   16.3665   -6.5206    0.0000 C   0  0  0  0  0  0  0  0  0  0  0  0
   17.2483   -5.3069    0.0000 N   0  0  0  0  0  0  0  0  0  0  0  0
   18.6749   -5.7706    0.0000 C   0  0  0  0  0  0  0  0  0  0  0  0
   19.9740   -5.0207    0.0000 N   0  0  0  0  0  0  0  0  0  0  0  0
   21.2729   -5.7706    0.0000 C   0  0  0  0  0  0  0  0  0  0  0  0
   21.2729   -7.2706    0.0000 C   0  0  0  0  0  0  0  0  0  0  0  0
   19.9740   -8.0206    0.0000 C   0  0  0  0  0  0  0  0  0  0  0  0
   18.6749   -7.2706    0.0000 C   0  0  0  0  0  0  0  0  0  0  0  0
   11.9962  -15.4909    0.0000 C   0  0  0  0  0  0  0  0  0  0  0  0
   11.5328  -16.9174    0.0000 C   0  0  0  0  0  0  0  0  0  0  0  0
   10.0655  -17.2293    0.0000 C   0  0  0  0  0  0  0  0  0  0  0  0
    9.0618  -16.1147    0.0000 C   0  0  0  0  0  0  0  0  0  0  0  0
    9.5253  -14.6881    0.0000 C   0  0  0  0  0  0  0  0  0  0  0  0
   10.9926  -14.3761    0.0000 C   0  0  0  0  0  0  0  0  0  0  0  0
  1  2  1  0  0  0  0
  2  3  1  0  0  0  0
  2 21  1  0  0  0  0
  3  4  1  0  0  0  0
  4  5  2  0  0  0  0
  4  6  1  0  0  0  0
  6  7  1  0  0  0  0
  6 11  1  0  0  0  0
  7  8  1  0  0  0  0
  8  9  1  0  0  0  0
  9 10  2  0  0  0  0
  9 12  1  0  0  0  0
 10 11  1  0  0  0  0
 12 13  2  0  0  0  0
 12 20  1  0  0  0  0
 13 14  1  0  0  0  0
 14 15  1  0  0  0  0
 15 16  2  0  0  0  0
 15 20  1  0  0  0  0
 16 17  1  0  0  0  0
 17 18  2  0  0  0  0
 18 19  1  0  0  0  0
 19 20  2  0  0  0  0
 21 22  2  0  0  0  0
 21 26  1  0  0  0  0
 22 23  1  0  0  0  0
 23 24  2  0  0  0  0
 24 25  1  0  0  0  0
 25 26  2  0  0  0  0
M  END
$$$$
