
##########                                Name:        626_500_2OWB
##########                    Molecular_Weight:             449.557
##########                DOCK_Rotatable_Bonds:                   7
##########                       Formal_Charge:              1.0001
##########                     HBond_Acceptors:                   9
##########                        HBond_Donors:                   3
##########                         Heavy_Atoms:                  32
##########                            HA_RMSDs:               0.206
##########                            HA_RMSDh:               0.206
##########                            HA_RMSDm:               0.206
##########                          Grid_Score:         -110.280724
##########                     Grid_vdw_energy:          -65.645164
##########                      Grid_es_energy:          -44.635559
##########           Internal_energy_repulsive:           17.424875

@<TRIPOS>MOLECULE
626_500_2OWB
 57 61 1 0 0
SMALL
USER_CHARGES


@<TRIPOS>ATOM
      1 C1          1.6712   16.7958   70.6046 C.3     1  <0>        -0.0430
      2 C2         -0.1420   25.7424   61.0185 C.2     1  <0>        -0.0545
      3 C3         -0.2486   26.8499   61.9539 C.2     1  <0>        -0.0511
      4 C4          0.1799   23.1591   70.7984 C.ar    1  <0>        -0.0479
      5 C5         -1.2866   22.3417   69.0749 C.ar    1  <0>        -0.0479
      6 C6         -0.0344   21.9870   71.5389 C.ar    1  <0>        -0.0399
      7 C7         -1.5018   21.1676   69.8174 C.ar    1  <0>        -0.0399
      8 C8         -1.3151   24.9972   60.9939 C.2     1  <0>        -0.0241
      9 C9         -0.4858   27.0930   66.0875 C.2     1  <0>         0.0164
     10 C10         0.9127   29.1690   65.7848 C.2     1  <0>         0.0272
     11 C11        -0.5580   17.8337   70.4564 C.3     1  <0>        -0.0160
     12 C12         1.0847   18.6655   72.0792 C.3     1  <0>        -0.0160
     13 C13        -1.6483   18.5533   71.2558 C.3     1  <0>         0.0525
     14 C14        -0.0537   19.3520   72.8378 C.3     1  <0>         0.0525
     15 C15        -1.9781   27.8617   63.6109 C.3     1  <0>         0.0561
     16 C16        -0.4343   23.3699   69.5451 C.ar    1  <0>         0.0372
     17 C17        -0.8807   20.9560   71.0747 C.ar    1  <0>         0.0301
     18 C18        -1.5013   26.8650   62.5796 C.2     1  <0>        -0.0014
     19 C19         0.5221   27.2798   67.1735 C.2     1  <0>         0.0547
     20 C20         1.2484   28.3802   66.9917 C.2     1  <0>         0.0744
     21 C21         1.0249   26.6731   68.4137 C.2     1  <0>         0.1535
     22 C22        -0.8035   28.6683   64.1489 C.2     1  <0>         0.2281
     23 C23        -0.2138   24.6065   68.7270 C.2     1  <0>         0.2494
     24 N1          2.1230   28.4289   68.0450 N.pl3   1  <0>        -0.2341
     25 N2          1.9813   27.4392   68.8482 N.2     1  <0>        -0.1660
     26 N3          0.6968   25.5158   69.1321 N.am    1  <0>        -0.2646
     27 N4         -0.1800   28.3074   65.2743 N.am    1  <0>        -0.2510
     28 N5          0.5836   17.4874   71.3360 N.4     1  <0>         0.2353
     29 N6         -1.0820   19.7669   71.8712 N.pl3   1  <0>        -0.3198
     30 O1         -0.4476   29.6676   63.5291 O.2     1  <0>        -0.2746
     31 O2         -0.8690   24.7159   67.6929 O.2     1  <0>        -0.2698
     32 S1         -2.5383   25.5897   62.0641 S.3     1  <0>        -0.1011
     33 H1          2.4907   16.5620   71.3002 H       1  <0>         0.0778
     34 H2          1.2840   15.8634   70.1678 H       1  <0>         0.0778
     35 H3          2.0463   17.4485   69.8026 H       1  <0>         0.0778
     36 H4          0.7323   25.5272   60.4221 H       1  <0>         0.0623
     37 H5          0.5361   27.5677   62.1419 H       1  <0>         0.0626
     38 H6          0.8326   23.9211   71.1983 H       1  <0>         0.0626
     39 H7         -1.7830   22.4624   68.1234 H       1  <0>         0.0626
     40 H8          0.4619   21.8698   72.4910 H       1  <0>         0.0636
     41 H9         -2.1573   20.4068   69.4200 H       1  <0>         0.0636
     42 H10        -1.4504   24.1294   60.3652 H       1  <0>         0.0693
     43 H11        -1.2171   26.3130   65.9358 H       1  <0>         0.0796
     44 H12         1.3327   30.0856   65.3974 H       1  <0>         0.0807
     45 H13        -0.9752   16.9113   70.0260 H       1  <0>         0.0830
     46 H14        -0.2057   18.4942   69.6505 H       1  <0>         0.0830
     47 H15         1.5234   19.3795   71.3667 H       1  <0>         0.0830
     48 H16         1.8493   18.3375   72.7988 H       1  <0>         0.0830
     49 H17        -2.4728   18.8328   70.5834 H       1  <0>         0.0516
     50 H18        -2.0283   17.8853   72.0428 H       1  <0>         0.0516
     51 H19        -0.4896   18.6522   73.5660 H       1  <0>         0.0516
     52 H20         0.3332   20.2336   73.3697 H       1  <0>         0.0516
     53 H21        -2.7031   28.5454   63.1450 H       1  <0>         0.0412
     54 H22        -2.4568   27.3219   64.4412 H       1  <0>         0.0412
     55 H23         2.7975   29.1560   68.1734 H       1  <0>         0.1745
     56 H24         1.1671   25.3536   69.9996 H       1  <0>         0.1566
     57 H25         0.2348   16.8375   72.0112 H       1  <0>         0.2032
@<TRIPOS>BOND
     1     1    28    1
     2     2     3    1
     3     2     8    2
     4     3    18    2
     5     4     6   ar
     6     4    16   ar
     7     5     7   ar
     8     5    16   ar
     9     6    17   ar
    10     7    17   ar
    11     8    32    1
    12     9    19    2
    13     9    27    1
    14    10    20    2
    15    10    27    1
    16    11    13    1
    17    11    28    1
    18    12    14    1
    19    12    28    1
    20    13    29    1
    21    14    29    1
    22    15    18    1
    23    15    22    1
    24    16    23    1
    25    17    29    1
    26    18    32    1
    27    19    20    1
    28    19    21    1
    29    20    24    1
    30    21    25    2
    31    21    26    1
    32    22    27   am
    33    22    30    2
    34    23    26   am
    35    23    31    2
    36    24    25    1
    37     1    33    1
    38     1    34    1
    39     1    35    1
    40     2    36    1
    41     3    37    1
    42     4    38    1
    43     5    39    1
    44     6    40    1
    45     7    41    1
    46     8    42    1
    47     9    43    1
    48    10    44    1
    49    11    45    1
    50    11    46    1
    51    12    47    1
    52    12    48    1
    53    13    49    1
    54    13    50    1
    55    14    51    1
    56    14    52    1
    57    15    53    1
    58    15    54    1
    59    24    55    1
    60    26    56    1
    61    28    57    1
@<TRIPOS>SUBSTRUCTURE
     1 <0>         1 TEMP              0 ****  ****    0 ROOT

