
##########                                Name:        19A_360_2OJG
##########                    Molecular_Weight:             280.329
##########                DOCK_Rotatable_Bonds:                   4
##########                       Formal_Charge:        -1.19209e-07
##########                     HBond_Acceptors:                   5
##########                        HBond_Donors:                   2
##########                         Heavy_Atoms:                  21
##########                            HA_RMSDs:               0.398
##########                            HA_RMSDh:               0.398
##########                            HA_RMSDm:               0.398
##########                          Grid_Score:          -42.124485
##########                     Grid_vdw_energy:          -41.070133
##########                      Grid_es_energy:           -1.054351
##########           Internal_energy_repulsive:           13.316211

@<TRIPOS>MOLECULE
19A_360_2OJG
 37 39 1 0 0
SMALL
USER_CHARGES


@<TRIPOS>ATOM
      1 C1         -9.0150   13.5189   41.3829 C.3     1  <0>         0.0032
      2 C2        -11.2976   14.4516   41.8720 C.3     1  <0>         0.0032
      3 C3        -14.7958   16.5463   43.8623 C.ar    1  <0>        -0.0617
      4 C4        -14.6575   16.3504   42.4702 C.ar    1  <0>        -0.0612
      5 C5        -15.5369   15.6249   44.6533 C.ar    1  <0>        -0.0612
      6 C6        -15.2690   15.2338   41.8588 C.ar    1  <0>        -0.0539
      7 C7        -16.1413   14.5175   44.0527 C.ar    1  <0>        -0.0539
      8 C8        -13.5598   12.3792   41.1605 C.2     1  <0>        -0.0253
      9 C9        -14.4207   11.3770   39.3750 C.2     1  <0>         0.0030
     10 C10       -18.0062   12.7508   42.2848 C.2     1  <0>         0.0551
     11 C11       -16.0153   14.3013   42.6439 C.ar    1  <0>        -0.0145
     12 C12       -14.7622   11.9529   40.5782 C.2     1  <0>         0.0138
     13 C13       -12.5067   12.0708   40.3217 C.2     1  <0>         0.0943
     14 C14       -16.6932   13.0937   42.0495 C.2     1  <0>         0.0248
     15 C15       -16.1572   12.0852   41.1607 C.2     1  <0>         0.0658
     16 C16       -11.0202   12.3269   40.5315 C.2     1  <0>         0.2602
     17 N1        -13.0677   11.4465   39.2230 N.pl3   1  <0>        -0.3159
     18 N2        -17.1380   11.2236   40.9256 N.pl3   1  <0>        -0.2365
     19 N3        -18.2778   11.6279   41.6127 N.2     1  <0>        -0.1898
     20 N4        -10.4794   13.4072   41.2441 N.am    1  <0>        -0.3026
     21 O1        -10.2450   11.5185   40.0376 O.2     1  <0>        -0.2686
     22 H1         -8.5319   12.6757   40.8677 H       1  <0>         0.0428
     23 H2         -8.6756   14.4648   40.9356 H       1  <0>         0.0428
     24 H3         -8.7454   13.4999   42.4493 H       1  <0>         0.0428
     25 H4        -12.3622   14.2430   41.6900 H       1  <0>         0.0428
     26 H5        -11.1068   14.4648   42.9553 H       1  <0>         0.0428
     27 H6        -11.0369   15.4297   41.4417 H       1  <0>         0.0428
     28 H7        -14.3347   17.4035   44.3305 H       1  <0>         0.0618
     29 H8        -14.0876   17.0502   41.8770 H       1  <0>         0.0618
     30 H9        -15.6321   15.7812   45.7176 H       1  <0>         0.0618
     31 H10       -15.1723   15.0839   40.7936 H       1  <0>         0.0624
     32 H11       -16.7065   13.8214   44.6547 H       1  <0>         0.0624
     33 H12       -13.4709   12.8725   42.1172 H       1  <0>         0.0645
     34 H13       -15.1112   10.9417   38.6679 H       1  <0>         0.0788
     35 H14       -18.6994   13.2971   42.9072 H       1  <0>         0.0852
     36 H15       -12.5581   11.0986   38.4360 H       1  <0>         0.1518
     37 H16       -17.0689   10.4117   40.3459 H       1  <0>         0.1744
@<TRIPOS>BOND
     1     1    20    1
     2     2    20    1
     3     3     4   ar
     4     3     5   ar
     5     4     6   ar
     6     5     7   ar
     7     6    11   ar
     8     7    11   ar
     9     8    12    1
    10     8    13    2
    11     9    12    2
    12     9    17    1
    13    10    14    1
    14    10    19    2
    15    11    14    1
    16    12    15    1
    17    13    16    1
    18    13    17    1
    19    14    15    2
    20    15    18    1
    21    16    20   am
    22    16    21    2
    23    18    19    1
    24     1    22    1
    25     1    23    1
    26     1    24    1
    27     2    25    1
    28     2    26    1
    29     2    27    1
    30     3    28    1
    31     4    29    1
    32     5    30    1
    33     6    31    1
    34     7    32    1
    35     8    33    1
    36     9    34    1
    37    10    35    1
    38    17    36    1
    39    18    37    1
@<TRIPOS>SUBSTRUCTURE
     1 <0>         1 TEMP              0 ****  ****    0 ROOT

