
##########                                Name:      THM_A4970_2B8T
##########                    Molecular_Weight:             242.232
##########                DOCK_Rotatable_Bonds:                   4
##########                       Formal_Charge:          0.00029996
##########                     HBond_Acceptors:                   7
##########                        HBond_Donors:                   3
##########                         Heavy_Atoms:                  17
##########                            HA_RMSDs:               0.224
##########                            HA_RMSDh:               0.224
##########                            HA_RMSDm:               0.224
##########                          Grid_Score:          -42.007259
##########                     Grid_vdw_energy:          -40.568245
##########                      Grid_es_energy:           -1.439015
##########           Internal_energy_repulsive:            6.018590

@<TRIPOS>MOLECULE
THM_A4970_2B8T
 31 32 1 0 0
SMALL
USER_CHARGES


@<TRIPOS>ATOM
      1 C1         -6.2266    6.7096   36.7767 C.3     1  <0>        -0.0336
      2 C2         -8.5171    5.7984   36.1974 C.2     1  <0>         0.0111
      3 C3        -11.2284    6.1325   34.8894 C.3     1  <0>         0.0193
      4 C4         -9.9746    4.3926   32.3126 C.3     1  <0>         0.0729
      5 C5         -7.4888    5.9630   37.1261 C.2     1  <0>         0.0258
      6 C6         -7.6683    5.3859   38.4884 C.2     1  <0>         0.2484
      7 C7         -9.7612    4.5801   37.8548 C.2     1  <0>         0.3146
      8 C8        -11.8111    5.5247   33.6266 C.3     1  <0>         0.0874
      9 C9        -10.7389    4.8957   35.6232 C.3     1  <0>         0.1354
     10 C10       -11.0303    4.2383   33.3975 C.3     1  <0>         0.1098
     11 N1         -8.7943    4.7250   38.7684 N.am    1  <0>        -0.2359
     12 N2         -9.6249    5.1182   36.5529 N.am    1  <0>        -0.2347
     13 O1        -10.5888    4.2005   31.0355 O.3     1  <0>        -0.3924
     14 O2        -13.1874    5.1949   33.8564 O.3     1  <0>        -0.3890
     15 O3         -6.7858    5.5006   39.3648 O.2     1  <0>        -0.2701
     16 O4        -10.7990    3.9501   38.1649 O.2     1  <0>        -0.2518
     17 O5        -10.3824    3.9285   34.6302 O.3     1  <0>        -0.3502
     18 H1         -6.3540    7.7765   37.0121 H       1  <0>         0.0280
     19 H2         -5.3871    6.3033   37.3600 H       1  <0>         0.0280
     20 H3         -6.0174    6.5936   35.7030 H       1  <0>         0.0280
     21 H4         -8.4261    6.2118   35.2037 H       1  <0>         0.0790
     22 H5        -10.4126    6.8380   34.6733 H       1  <0>         0.0333
     23 H6        -11.9801    6.6893   35.4682 H       1  <0>         0.0333
     24 H7         -9.5361    5.4001   32.3641 H       1  <0>         0.0584
     25 H8         -9.1826    3.6433   32.4583 H       1  <0>         0.0584
     26 H9        -11.7470    6.2115   32.7697 H       1  <0>         0.0621
     27 H10       -11.5571    4.5498   36.2718 H       1  <0>         0.0814
     28 H11       -11.7199    3.4463   33.0701 H       1  <0>         0.0646
     29 H12        -8.9174    4.3306   39.6790 H       1  <0>         0.1594
     30 H13        -9.9292    4.2590   30.3544 H       1  <0>         0.2095
     31 H14       -13.5728    4.8651   33.0533 H       1  <0>         0.2099
@<TRIPOS>BOND
     1     1     5    1
     2     2     5    2
     3     2    12    1
     4     3     8    1
     5     3     9    1
     6     4    10    1
     7     4    13    1
     8     5     6    1
     9     6    11   am
    10     6    15    2
    11     7    11   am
    12     7    12   am
    13     7    16    2
    14     8    10    1
    15     8    14    1
    16     9    12    1
    17     9    17    1
    18    10    17    1
    19     1    18    1
    20     1    19    1
    21     1    20    1
    22     2    21    1
    23     3    22    1
    24     3    23    1
    25     4    24    1
    26     4    25    1
    27     8    26    1
    28     9    27    1
    29    10    28    1
    30    11    29    1
    31    13    30    1
    32    14    31    1
@<TRIPOS>SUBSTRUCTURE
     1 <0>         1 TEMP              0 ****  ****    0 ROOT

