
##########                                Name:          HYZ_1_2RGP
##########                    Molecular_Weight:             446.531
##########                DOCK_Rotatable_Bonds:                   7
##########                       Formal_Charge:         0.000200018
##########                     HBond_Acceptors:                   9
##########                        HBond_Donors:                   4
##########                         Heavy_Atoms:                  33
##########                            HA_RMSDs:               0.564
##########                            HA_RMSDh:               0.564
##########                            HA_RMSDm:               0.558
##########                          Grid_Score:          -79.348076
##########                     Grid_vdw_energy:          -77.984276
##########                      Grid_es_energy:           -1.363797
##########           Internal_energy_repulsive:           10.529164

@<TRIPOS>MOLECULE
HYZ_1_2RGP
 60 64 1 0 0
SMALL
USER_CHARGES


@<TRIPOS>ATOM
      1 C1         15.8329   39.9837   97.6938 C.ar    1  <0>        -0.0587
      2 C2         16.6765   38.8368   97.7733 C.ar    1  <0>        -0.0568
      3 C3         14.5498   39.8870   97.0907 C.ar    1  <0>        -0.0264
      4 C4         17.6931   35.5088   92.8321 C.ar    1  <0>        -0.0387
      5 C5         17.6788   35.9125   94.1828 C.ar    1  <0>        -0.0365
      6 C6         14.9380   37.5083   96.6469 C.ar    1  <0>        -0.0217
      7 C7         16.1425   33.6570   93.3164 C.ar    1  <0>        -0.0300
      8 C8         15.4720   33.5951   95.8477 C.2     1  <0>         0.0548
      9 C9         13.6079   34.2564   89.8250 C.ar    1  <0>         0.1201
     10 C10        21.3442   31.3505   85.4990 C.3     1  <0>        -0.0507
     11 C11        20.1615   31.9412   84.7248 C.3     1  <0>        -0.0388
     12 C12        21.3955   31.9031   86.9269 C.3     1  <0>        -0.0388
     13 C13        18.8402   31.7789   85.5011 C.3     1  <0>         0.0137
     14 C14        20.0486   31.7239   87.6550 C.3     1  <0>         0.0137
     15 C15        17.3952   33.2735   88.1978 C.3     1  <0>         0.0425
     16 C16        17.1448   36.3260   97.3296 C.3     1  <0>         0.0601
     17 C17        16.2440   37.5770   97.2518 C.ar    1  <0>        -0.0255
     18 C18        16.9368   34.3988   92.3838 C.ar    1  <0>         0.0331
     19 C19        14.1142   38.6482   96.5724 C.ar    1  <0>         0.1237
     20 C20        16.8731   35.1573   95.0869 C.ar    1  <0>         0.0606
     21 C21        16.1125   34.0481   94.6773 C.ar    1  <0>         0.0191
     22 C22        16.0769   33.6064   88.7727 C.ar    1  <0>         0.0472
     23 C23        14.8854   33.5617   88.0057 C.ar    1  <0>         0.1256
     24 C24        15.9372   33.9872   90.1063 C.ar    1  <0>         0.1324
     25 N1         14.8671   33.1970   86.6751 N.pl3   1  <0>        -0.3428
     26 N2         15.7643   34.3341   96.9174 N.2     1  <0>        -0.1868
     27 N3         13.6564   33.8882   88.5269 N.ar    1  <0>        -0.2207
     28 N4         14.6978   34.3197   90.6406 N.ar    1  <0>        -0.2202
     29 N5         17.6954   32.1851   87.5614 N.3     1  <0>        -0.2494
     30 N6         16.9784   34.0854   91.0328 N.pl3   1  <0>        -0.2990
     31 N7         16.6158   35.2866   96.4314 N.pl3   1  <0>        -0.2195
     32 N8         18.8892   32.3324   86.8987 N.3     1  <0>        -0.2426
     33 F1         12.8977   38.5440   95.9987 F       1  <0>        -0.2055
     34 H1         16.1701   40.9288   98.0932 H       1  <0>         0.0619
     35 H2         17.6510   38.9200   98.2315 H       1  <0>         0.0621
     36 H3         13.9117   40.7562   97.0292 H       1  <0>         0.0646
     37 H4         18.2945   36.0586   92.1233 H       1  <0>         0.0637
     38 H5         18.2555   36.7609   94.5205 H       1  <0>         0.0637
     39 H6         14.5860   36.5696   96.2452 H       1  <0>         0.0649
     40 H7         15.5695   32.8041   92.9838 H       1  <0>         0.0643
     41 H8         14.8138   32.7392   95.8751 H       1  <0>         0.0852
     42 H9         12.6465   34.5167   90.2426 H       1  <0>         0.1048
     43 H10        21.2330   30.2571   85.5425 H       1  <0>         0.0266
     44 H11        22.2781   31.6128   84.9803 H       1  <0>         0.0266
     45 H12        20.3460   33.0129   84.5592 H       1  <0>         0.0278
     46 H13        20.0727   31.4189   83.7607 H       1  <0>         0.0278
     47 H14        22.1744   31.3647   87.4867 H       1  <0>         0.0278
     48 H15        21.6333   32.9761   86.8824 H       1  <0>         0.0278
     49 H16        18.0522   32.3127   84.9496 H       1  <0>         0.0441
     50 H17        18.6121   30.7048   85.5667 H       1  <0>         0.0441
     51 H18        19.8587   30.6469   87.7734 H       1  <0>         0.0441
     52 H19        20.1173   32.2137   88.6375 H       1  <0>         0.0441
     53 H20        17.5839   34.0753   87.4688 H       1  <0>         0.0489
     54 H21        18.0776   33.2809   89.0604 H       1  <0>         0.0489
     55 H22        18.1676   36.5904   97.0232 H       1  <0>         0.0534
     56 H23        17.1584   35.9469   98.3621 H       1  <0>         0.0534
     57 H24        13.9297   33.2409   86.3298 H       1  <0>         0.1437
     58 H25        15.4451   33.8220   86.1504 H       1  <0>         0.1437
     59 H26        17.7738   31.4331   88.2159 H       1  <0>         0.1411
     60 H27        17.8909   33.9021   90.6671 H       1  <0>         0.1536
@<TRIPOS>BOND
     1     1     2   ar
     2     1     3   ar
     3     2    17   ar
     4     3    19   ar
     5     4     5   ar
     6     4    18   ar
     7     5    20   ar
     8     6    17   ar
     9     6    19   ar
    10     7    18   ar
    11     7    21   ar
    12     8    21    1
    13     8    26    2
    14     9    27   ar
    15     9    28   ar
    16    10    11    1
    17    10    12    1
    18    11    13    1
    19    12    14    1
    20    13    32    1
    21    14    32    1
    22    15    22    1
    23    15    29    1
    24    16    17    1
    25    16    31    1
    26    18    30    1
    27    19    33    1
    28    20    21   ar
    29    20    31    1
    30    22    23   ar
    31    22    24   ar
    32    23    25    1
    33    23    27   ar
    34    24    28   ar
    35    24    30    1
    36    26    31    1
    37    29    32    1
    38     1    34    1
    39     2    35    1
    40     3    36    1
    41     4    37    1
    42     5    38    1
    43     6    39    1
    44     7    40    1
    45     8    41    1
    46     9    42    1
    47    10    43    1
    48    10    44    1
    49    11    45    1
    50    11    46    1
    51    12    47    1
    52    12    48    1
    53    13    49    1
    54    13    50    1
    55    14    51    1
    56    14    52    1
    57    15    53    1
    58    15    54    1
    59    16    55    1
    60    16    56    1
    61    25    57    1
    62    25    58    1
    63    29    59    1
    64    30    60    1
@<TRIPOS>SUBSTRUCTURE
     1 <0>         1 TEMP              0 ****  ****    0 ROOT

