
##########                                Name:          HYZ_1_2RGP
##########                    Molecular_Weight:             446.531
##########                DOCK_Rotatable_Bonds:                   7
##########                       Formal_Charge:         0.000200018
##########                     HBond_Acceptors:                   9
##########                        HBond_Donors:                   4
##########                         Heavy_Atoms:                  33
##########                            HA_RMSDs:               0.509
##########                            HA_RMSDh:               0.509
##########                            HA_RMSDm:               0.491
##########                          Grid_Score:          -78.737305
##########                     Grid_vdw_energy:          -77.105698
##########                      Grid_es_energy:           -1.631605
##########           Internal_energy_repulsive:           10.278011

@<TRIPOS>MOLECULE
HYZ_1_2RGP
 60 64 1 0 0
SMALL
USER_CHARGES


@<TRIPOS>ATOM
      1 C1         15.6765   40.2570   97.6871 C.ar    1  <0>        -0.0587
      2 C2         16.6713   39.2353   97.6697 C.ar    1  <0>        -0.0568
      3 C3         14.3533   39.9738   97.2534 C.ar    1  <0>        -0.0264
      4 C4         17.6690   35.7278   92.7240 C.ar    1  <0>        -0.0387
      5 C5         17.7283   36.2192   94.0440 C.ar    1  <0>        -0.0365
      6 C6         15.0021   37.6570   96.7872 C.ar    1  <0>        -0.0217
      7 C7         16.3345   33.7894   93.4518 C.ar    1  <0>        -0.0300
      8 C8         15.8800   33.8427   96.0308 C.2     1  <0>         0.0548
      9 C9         13.4956   34.1724   90.0934 C.ar    1  <0>         0.1201
     10 C10        20.5796   31.3808   84.8328 C.3     1  <0>        -0.0507
     11 C11        19.1626   31.7595   84.3904 C.3     1  <0>        -0.0388
     12 C12        20.9708   32.1238   86.1141 C.3     1  <0>        -0.0388
     13 C13        18.1486   31.5928   85.5388 C.3     1  <0>         0.0137
     14 C14        19.9208   31.9317   87.2262 C.3     1  <0>         0.0137
     15 C15        17.2054   33.3315   88.2259 C.3     1  <0>         0.0425
     16 C16        17.4167   36.7984   97.1945 C.3     1  <0>         0.0601
     17 C17        16.3520   37.9155   97.2199 C.ar    1  <0>        -0.0255
     18 C18        16.9810   34.5305   92.4107 C.ar    1  <0>         0.0331
     19 C19        14.0284   38.6744   96.8070 C.ar    1  <0>         0.1237
     20 C20        17.0694   35.4620   95.0585 C.ar    1  <0>         0.0606
     21 C21        16.3803   34.2677   94.7841 C.ar    1  <0>         0.0191
     22 C22        15.9151   33.6149   88.8844 C.ar    1  <0>         0.0472
     23 C23        14.6794   33.5241   88.1953 C.ar    1  <0>         0.1256
     24 C24        15.8467   33.9921   90.2246 C.ar    1  <0>         0.1324
     25 N1         14.5897   33.1570   86.8683 N.pl3   1  <0>        -0.3428
     26 N2         16.1909   34.6743   97.0246 N.2     1  <0>        -0.1868
     27 N3         13.4748   33.8045   88.7945 N.ar    1  <0>        -0.2207
     28 N4         14.6324   34.2781   90.8376 N.ar    1  <0>        -0.2202
     29 N5         17.6017   32.1759   87.7931 N.3     1  <0>        -0.2494
     30 N6         16.9406   34.1309   91.0826 N.pl3   1  <0>        -0.2990
     31 N7         16.9116   35.6599   96.4100 N.pl3   1  <0>        -0.2195
     32 N8         18.5289   32.3324   86.7921 N.3     1  <0>        -0.2426
     33 F1         12.7752   38.3935   96.3941 F       1  <0>        -0.2055
     34 H1         15.9296   41.2490   98.0310 H       1  <0>         0.0619
     35 H2         17.6749   39.4600   97.9992 H       1  <0>         0.0621
     36 H3         13.6004   40.7481   97.2653 H       1  <0>         0.0646
     37 H4         18.1593   36.2770   91.9338 H       1  <0>         0.0637
     38 H5         18.2524   37.1340   94.2786 H       1  <0>         0.0637
     39 H6         14.7333   36.6693   96.4427 H       1  <0>         0.0649
     40 H7         15.8150   32.8708   93.2221 H       1  <0>         0.0643
     41 H8         15.3053   32.9384   96.1667 H       1  <0>         0.0852
     42 H9         12.5537   34.3966   90.5720 H       1  <0>         0.1048
     43 H10        20.6181   30.2979   85.0214 H       1  <0>         0.0266
     44 H11        21.2871   31.6483   84.0341 H       1  <0>         0.0266
     45 H12        19.1614   32.8106   84.0663 H       1  <0>         0.0278
     46 H13        18.8649   31.1060   83.5571 H       1  <0>         0.0278
     47 H14        21.9364   31.7336   86.4682 H       1  <0>         0.0278
     48 H15        21.0549   33.1971   85.8887 H       1  <0>         0.0278
     49 H16        17.1773   31.9788   85.1957 H       1  <0>         0.0441
     50 H17        18.0800   30.5221   85.7814 H       1  <0>         0.0441
     51 H18        19.9039   30.8685   87.5077 H       1  <0>         0.0441
     52 H19        20.2085   32.5539   88.0864 H       1  <0>         0.0441
     53 H20        17.1991   33.9695   87.3299 H       1  <0>         0.0489
     54 H21        17.9603   33.6149   88.9740 H       1  <0>         0.0489
     55 H22        18.3395   37.1811   96.7342 H       1  <0>         0.0534
     56 H23        17.6294   36.4703   98.2227 H       1  <0>         0.0534
     57 H24        13.6311   33.1649   86.5838 H       1  <0>         0.1437
     58 H25        15.1088   33.8028   86.3082 H       1  <0>         0.1437
     59 H26        18.0159   31.6671   88.5477 H       1  <0>         0.1411
     60 H27        17.8280   33.9090   90.6786 H       1  <0>         0.1536
@<TRIPOS>BOND
     1     1     2   ar
     2     1     3   ar
     3     2    17   ar
     4     3    19   ar
     5     4     5   ar
     6     4    18   ar
     7     5    20   ar
     8     6    17   ar
     9     6    19   ar
    10     7    18   ar
    11     7    21   ar
    12     8    21    1
    13     8    26    2
    14     9    27   ar
    15     9    28   ar
    16    10    11    1
    17    10    12    1
    18    11    13    1
    19    12    14    1
    20    13    32    1
    21    14    32    1
    22    15    22    1
    23    15    29    1
    24    16    17    1
    25    16    31    1
    26    18    30    1
    27    19    33    1
    28    20    21   ar
    29    20    31    1
    30    22    23   ar
    31    22    24   ar
    32    23    25    1
    33    23    27   ar
    34    24    28   ar
    35    24    30    1
    36    26    31    1
    37    29    32    1
    38     1    34    1
    39     2    35    1
    40     3    36    1
    41     4    37    1
    42     5    38    1
    43     6    39    1
    44     7    40    1
    45     8    41    1
    46     9    42    1
    47    10    43    1
    48    10    44    1
    49    11    45    1
    50    11    46    1
    51    12    47    1
    52    12    48    1
    53    13    49    1
    54    13    50    1
    55    14    51    1
    56    14    52    1
    57    15    53    1
    58    15    54    1
    59    16    55    1
    60    16    56    1
    61    25    57    1
    62    25    58    1
    63    29    59    1
    64    30    60    1
@<TRIPOS>SUBSTRUCTURE
     1 <0>         1 TEMP              0 ****  ****    0 ROOT

