
##########                                Name:          HYZ_1_2RGP
##########                    Molecular_Weight:             446.531
##########                DOCK_Rotatable_Bonds:                   7
##########                       Formal_Charge:         0.000200018
##########                     HBond_Acceptors:                   9
##########                        HBond_Donors:                   4
##########                         Heavy_Atoms:                  33
##########                            HA_RMSDs:               0.594
##########                            HA_RMSDh:               0.594
##########                            HA_RMSDm:               0.591
##########                          Grid_Score:          -77.401505
##########                     Grid_vdw_energy:          -75.546547
##########                      Grid_es_energy:           -1.854955
##########           Internal_energy_repulsive:           12.434080

@<TRIPOS>MOLECULE
HYZ_1_2RGP
 60 64 1 0 0
SMALL
USER_CHARGES


@<TRIPOS>ATOM
      1 C1         16.1004   40.0582   97.9627 C.ar    1  <0>        -0.0587
      2 C2         17.0289   38.9934   97.7681 C.ar    1  <0>        -0.0568
      3 C3         14.7566   39.9245   97.5207 C.ar    1  <0>        -0.0264
      4 C4         17.7125   35.7309   92.3952 C.ar    1  <0>        -0.0387
      5 C5         17.8363   36.1516   93.7351 C.ar    1  <0>        -0.0365
      6 C6         15.2530   37.6716   96.6936 C.ar    1  <0>        -0.0217
      7 C7         16.1711   33.9250   93.0516 C.ar    1  <0>        -0.0300
      8 C8         15.7431   33.9115   95.6358 C.2     1  <0>         0.0548
      9 C9         13.3047   33.9716   89.9523 C.ar    1  <0>         0.1201
     10 C10        21.5298   31.8429   86.2211 C.3     1  <0>        -0.0507
     11 C11        20.5291   32.3716   85.1886 C.3     1  <0>        -0.0388
     12 C12        21.2236   32.3982   87.6156 C.3     1  <0>        -0.0388
     13 C13        19.0743   32.1422   85.6425 C.3     1  <0>         0.0137
     14 C14        19.7559   32.1505   88.0170 C.3     1  <0>         0.0137
     15 C15        16.9378   33.5944   87.8038 C.3     1  <0>         0.0425
     16 C16        17.6141   36.6177   96.9118 C.3     1  <0>         0.0601
     17 C17        16.6218   37.7795   97.1304 C.ar    1  <0>        -0.0255
     18 C18        16.8906   34.6349   92.0370 C.ar    1  <0>         0.0331
     19 C19        14.3452   38.7306   96.8895 C.ar    1  <0>         0.1237
     20 C20        17.1025   35.4283   94.7225 C.ar    1  <0>         0.0606
     21 C21        16.2800   34.3336   94.4033 C.ar    1  <0>         0.0191
     22 C22        15.6758   33.7165   88.5599 C.ar    1  <0>         0.0472
     23 C23        14.4107   33.4987   87.9579 C.ar    1  <0>         0.1256
     24 C24        15.6643   34.0577   89.9113 C.ar    1  <0>         0.1324
     25 N1         14.2654   33.1494   86.6311 N.pl3   1  <0>        -0.3428
     26 N2         16.1534   34.6562   96.6618 N.2     1  <0>        -0.1868
     27 N3         13.2297   33.6287   88.6486 N.ar    1  <0>        -0.2207
     28 N4         14.4741   34.1918   90.6165 N.ar    1  <0>        -0.2202
     29 N5         17.4675   32.4902   87.3796 N.3     1  <0>        -0.2494
     30 N6         16.7960   34.3037   90.6929 N.pl3   1  <0>        -0.2990
     31 N7         16.9774   35.5808   96.0833 N.pl3   1  <0>        -0.2195
     32 N8         18.7729   32.6982   87.0072 N.3     1  <0>        -0.2426
     33 F1         13.0717   38.5918   96.4668 F       1  <0>        -0.2055
     34 H1         16.4196   40.9690   98.4475 H       1  <0>         0.0619
     35 H2         18.0489   39.1046   98.1054 H       1  <0>         0.0621
     36 H3         14.0539   40.7316   97.6668 H       1  <0>         0.0646
     37 H4         18.2567   36.2565   91.6246 H       1  <0>         0.0637
     38 H5         18.4626   36.9893   94.0040 H       1  <0>         0.0637
     39 H6         14.9184   36.7662   96.2092 H       1  <0>         0.0649
     40 H7         15.5488   33.0828   92.7874 H       1  <0>         0.0643
     41 H8         15.0702   33.0730   95.7380 H       1  <0>         0.0852
     42 H9         12.3814   34.0780   90.5025 H       1  <0>         0.1048
     43 H10        21.4662   30.7452   86.2514 H       1  <0>         0.0266
     44 H11        22.5437   32.1524   85.9276 H       1  <0>         0.0266
     45 H12        20.6931   33.4513   85.0566 H       1  <0>         0.0278
     46 H13        20.6906   31.8449   84.2365 H       1  <0>         0.0278
     47 H14        21.8787   31.9007   88.3460 H       1  <0>         0.0278
     48 H15        21.4115   33.4820   87.6137 H       1  <0>         0.0278
     49 H16        18.4087   32.6345   84.9183 H       1  <0>         0.0441
     50 H17        18.8911   31.0578   85.6673 H       1  <0>         0.0441
     51 H18        19.5978   31.0652   88.1019 H       1  <0>         0.0441
     52 H19        19.5723   32.6437   88.9829 H       1  <0>         0.0441
     53 H20        16.7648   34.1815   86.8899 H       1  <0>         0.0489
     54 H21        17.6985   34.0206   88.4744 H       1  <0>         0.0489
     55 H22        18.5135   36.9938   96.4024 H       1  <0>         0.0534
     56 H23        17.8968   36.1883   97.8843 H       1  <0>         0.0534
     57 H24        13.2936   33.0535   86.4156 H       1  <0>         0.1437
     58 H25        14.6661   33.8606   86.0534 H       1  <0>         0.1437
     59 H26        17.4394   31.8100   88.1121 H       1  <0>         0.1411
     60 H27        17.6691   34.2300   90.2111 H       1  <0>         0.1536
@<TRIPOS>BOND
     1     1     2   ar
     2     1     3   ar
     3     2    17   ar
     4     3    19   ar
     5     4     5   ar
     6     4    18   ar
     7     5    20   ar
     8     6    17   ar
     9     6    19   ar
    10     7    18   ar
    11     7    21   ar
    12     8    21    1
    13     8    26    2
    14     9    27   ar
    15     9    28   ar
    16    10    11    1
    17    10    12    1
    18    11    13    1
    19    12    14    1
    20    13    32    1
    21    14    32    1
    22    15    22    1
    23    15    29    1
    24    16    17    1
    25    16    31    1
    26    18    30    1
    27    19    33    1
    28    20    21   ar
    29    20    31    1
    30    22    23   ar
    31    22    24   ar
    32    23    25    1
    33    23    27   ar
    34    24    28   ar
    35    24    30    1
    36    26    31    1
    37    29    32    1
    38     1    34    1
    39     2    35    1
    40     3    36    1
    41     4    37    1
    42     5    38    1
    43     6    39    1
    44     7    40    1
    45     8    41    1
    46     9    42    1
    47    10    43    1
    48    10    44    1
    49    11    45    1
    50    11    46    1
    51    12    47    1
    52    12    48    1
    53    13    49    1
    54    13    50    1
    55    14    51    1
    56    14    52    1
    57    15    53    1
    58    15    54    1
    59    16    55    1
    60    16    56    1
    61    25    57    1
    62    25    58    1
    63    29    59    1
    64    30    60    1
@<TRIPOS>SUBSTRUCTURE
     1 <0>         1 TEMP              0 ****  ****    0 ROOT

