
##########                                Name:          HYZ_1_2RGP
##########                    Molecular_Weight:             446.531
##########                DOCK_Rotatable_Bonds:                   7
##########                       Formal_Charge:         0.000200018
##########                     HBond_Acceptors:                   9
##########                        HBond_Donors:                   4
##########                         Heavy_Atoms:                  33
##########                            HA_RMSDs:               0.576
##########                            HA_RMSDh:               0.576
##########                            HA_RMSDm:               0.572
##########                          Grid_Score:          -79.775429
##########                     Grid_vdw_energy:          -78.309914
##########                      Grid_es_energy:           -1.465516
##########           Internal_energy_repulsive:           11.407550

@<TRIPOS>MOLECULE
HYZ_1_2RGP
 60 64 1 0 0
SMALL
USER_CHARGES


@<TRIPOS>ATOM
      1 C1         15.9422   39.9988   97.8556 C.ar    1  <0>        -0.0587
      2 C2         16.7773   38.8429   97.8563 C.ar    1  <0>        -0.0568
      3 C3         14.6142   39.9210   97.3560 C.ar    1  <0>        -0.0264
      4 C4         17.6877   35.5023   92.8523 C.ar    1  <0>        -0.0387
      5 C5         17.6945   35.9015   94.2044 C.ar    1  <0>        -0.0365
      6 C6         14.9406   37.5433   96.8597 C.ar    1  <0>        -0.0217
      7 C7         16.0390   33.7355   93.3297 C.ar    1  <0>        -0.0300
      8 C8         15.3649   33.7011   95.8605 C.2     1  <0>         0.0548
      9 C9         13.5062   34.2465   89.8946 C.ar    1  <0>         0.1201
     10 C10        21.4692   31.7127   85.7336 C.3     1  <0>        -0.0507
     11 C11        20.2809   32.1262   84.8595 C.3     1  <0>        -0.0388
     12 C12        21.4071   32.3974   87.1026 C.3     1  <0>        -0.0388
     13 C13        18.9415   31.9245   85.5945 C.3     1  <0>         0.0137
     14 C14        20.0460   32.1722   87.7903 C.3     1  <0>         0.0137
     15 C15        17.3024   33.5067   88.1628 C.3     1  <0>         0.0425
     16 C16        17.1821   36.3325   97.3524 C.3     1  <0>         0.0601
     17 C17        16.2913   37.5929   97.3589 C.ar    1  <0>        -0.0255
     18 C18        16.8727   34.4365   92.3998 C.ar    1  <0>         0.0331
     19 C19        14.1255   38.6920   96.8622 C.ar    1  <0>         0.1237
     20 C20        16.8488   35.1879   95.1056 C.ar    1  <0>         0.0606
     21 C21        16.0295   34.1229   94.6919 C.ar    1  <0>         0.0191
     22 C22        15.9815   33.7544   88.7736 C.ar    1  <0>         0.0472
     23 C23        14.7813   33.7132   88.0199 C.ar    1  <0>         0.1256
     24 C24        15.8475   34.0467   90.1299 C.ar    1  <0>         0.1324
     25 N1         14.7568   33.4309   86.6696 N.pl3   1  <0>        -0.3428
     26 N2         15.6961   34.4195   96.9328 N.2     1  <0>        -0.1868
     27 N3         13.5491   33.9612   88.5756 N.ar    1  <0>        -0.2207
     28 N4         14.6049   34.2995   90.6990 N.ar    1  <0>        -0.2202
     29 N5         17.6704   32.4206   87.5589 N.3     1  <0>        -0.2494
     30 N6         16.8979   34.1259   91.0477 N.pl3   1  <0>        -0.2990
     31 N7         16.5982   35.3263   96.4505 N.pl3   1  <0>        -0.2195
     32 N8         18.8786   32.6071   86.9333 N.3     1  <0>        -0.2426
     33 F1         12.8661   38.6057   96.3865 F       1  <0>        -0.2055
     34 H1         16.3202   40.9363   98.2359 H       1  <0>         0.0619
     35 H2         17.7860   38.9118   98.2361 H       1  <0>         0.0621
     36 H3         13.9824   40.7969   97.3541 H       1  <0>         0.0646
     37 H4         18.3183   36.0213   92.1456 H       1  <0>         0.0637
     38 H5         18.3160   36.7164   94.5452 H       1  <0>         0.0637
     39 H6         14.5477   36.6124   96.4783 H       1  <0>         0.0649
     40 H7         15.4209   32.9159   92.9939 H       1  <0>         0.0643
     41 H8         14.6614   32.8820   95.8847 H       1  <0>         0.0852
     42 H9         12.5422   34.4448   90.3394 H       1  <0>         0.1048
     43 H10        21.4450   30.6225   85.8776 H       1  <0>         0.0266
     44 H11        22.4025   32.0044   85.2298 H       1  <0>         0.0266
     45 H12        20.3856   33.1898   84.5991 H       1  <0>         0.0278
     46 H13        20.2809   31.5113   83.9474 H       1  <0>         0.0278
     47 H14        22.1995   31.9815   87.7422 H       1  <0>         0.0278
     48 H15        21.5591   33.4781   86.9646 H       1  <0>         0.0278
     49 H16        18.1400   32.3358   84.9632 H       1  <0>         0.0441
     50 H17        18.7983   30.8455   85.7540 H       1  <0>         0.0441
     51 H18        19.9386   31.0986   88.0041 H       1  <0>         0.0441
     52 H19        20.0277   32.7549   88.7230 H       1  <0>         0.0441
     53 H20        17.3984   34.2896   87.3962 H       1  <0>         0.0489
     54 H21        18.0110   33.6064   88.9982 H       1  <0>         0.0489
     55 H22        18.1908   36.5976   97.0030 H       1  <0>         0.0534
     56 H23        17.2438   35.9211   98.3707 H       1  <0>         0.0534
     57 H24        13.8135   33.4614   86.3393 H       1  <0>         0.1437
     58 H25        15.3041   34.1081   86.1777 H       1  <0>         0.1437
     59 H26        17.7585   31.6851   88.2306 H       1  <0>         0.1411
     60 H27        17.8043   33.9291   90.6740 H       1  <0>         0.1536
@<TRIPOS>BOND
     1     1     2   ar
     2     1     3   ar
     3     2    17   ar
     4     3    19   ar
     5     4     5   ar
     6     4    18   ar
     7     5    20   ar
     8     6    17   ar
     9     6    19   ar
    10     7    18   ar
    11     7    21   ar
    12     8    21    1
    13     8    26    2
    14     9    27   ar
    15     9    28   ar
    16    10    11    1
    17    10    12    1
    18    11    13    1
    19    12    14    1
    20    13    32    1
    21    14    32    1
    22    15    22    1
    23    15    29    1
    24    16    17    1
    25    16    31    1
    26    18    30    1
    27    19    33    1
    28    20    21   ar
    29    20    31    1
    30    22    23   ar
    31    22    24   ar
    32    23    25    1
    33    23    27   ar
    34    24    28   ar
    35    24    30    1
    36    26    31    1
    37    29    32    1
    38     1    34    1
    39     2    35    1
    40     3    36    1
    41     4    37    1
    42     5    38    1
    43     6    39    1
    44     7    40    1
    45     8    41    1
    46     9    42    1
    47    10    43    1
    48    10    44    1
    49    11    45    1
    50    11    46    1
    51    12    47    1
    52    12    48    1
    53    13    49    1
    54    13    50    1
    55    14    51    1
    56    14    52    1
    57    15    53    1
    58    15    54    1
    59    16    55    1
    60    16    56    1
    61    25    57    1
    62    25    58    1
    63    29    59    1
    64    30    60    1
@<TRIPOS>SUBSTRUCTURE
     1 <0>         1 TEMP              0 ****  ****    0 ROOT

