
##########                                Name:          HYZ_1_2RGP
##########                    Molecular_Weight:             446.531
##########                DOCK_Rotatable_Bonds:                   7
##########                       Formal_Charge:         0.000200018
##########                     HBond_Acceptors:                   9
##########                        HBond_Donors:                   4
##########                         Heavy_Atoms:                  33
##########                            HA_RMSDs:               0.692
##########                            HA_RMSDh:               0.692
##########                            HA_RMSDm:               0.667
##########                          Grid_Score:          -80.323090
##########                     Grid_vdw_energy:          -78.966255
##########                      Grid_es_energy:           -1.356834
##########           Internal_energy_repulsive:           10.992017

@<TRIPOS>MOLECULE
HYZ_1_2RGP
 60 64 1 0 0
SMALL
USER_CHARGES


@<TRIPOS>ATOM
      1 C1         15.8567   39.9225   97.7959 C.ar    1  <0>        -0.0587
      2 C2         16.6477   38.7391   97.8841 C.ar    1  <0>        -0.0568
      3 C3         14.5707   39.8795   97.1930 C.ar    1  <0>        -0.0264
      4 C4         17.5536   35.4979   92.9433 C.ar    1  <0>        -0.0387
      5 C5         17.5415   35.8658   94.3041 C.ar    1  <0>        -0.0365
      6 C6         14.8510   37.4825   96.7666 C.ar    1  <0>        -0.0217
      7 C7         15.9635   33.6660   93.3721 C.ar    1  <0>        -0.0300
      8 C8         15.2807   33.5507   95.8982 C.2     1  <0>         0.0548
      9 C9         13.4419   34.2801   89.9084 C.ar    1  <0>         0.1201
     10 C10        21.5998   31.8727   86.1350 C.3     1  <0>        -0.0507
     11 C11        20.8000   32.8720   85.2931 C.3     1  <0>        -0.0388
     12 C12        21.2704   32.0228   87.6236 C.3     1  <0>        -0.0388
     13 C13        19.2930   32.7962   85.6062 C.3     1  <0>         0.0137
     14 C14        19.7522   31.9484   87.8807 C.3     1  <0>         0.0137
     15 C15        17.2815   33.7964   88.1818 C.3     1  <0>         0.0425
     16 C16        17.0020   36.2067   97.4587 C.3     1  <0>         0.0601
     17 C17        16.1587   37.4965   97.3715 C.ar    1  <0>        -0.0255
     18 C18        16.7769   34.4159   92.4626 C.ar    1  <0>         0.0331
     19 C19        14.0795   38.6579   96.6835 C.ar    1  <0>         0.1237
     20 C20        16.7166   35.1036   95.1847 C.ar    1  <0>         0.0606
     21 C21        15.9354   34.0214   94.7428 C.ar    1  <0>         0.0191
     22 C22        15.9457   33.9544   88.7898 C.ar    1  <0>         0.0472
     23 C23        14.7583   33.9531   88.0150 C.ar    1  <0>         0.1256
     24 C24        15.7840   34.1173   90.1647 C.ar    1  <0>         0.1324
     25 N1         14.7613   33.7957   86.6443 N.pl3   1  <0>        -0.3428
     26 N2         15.5831   34.2550   96.9883 N.2     1  <0>        -0.1868
     27 N3         13.5119   34.1186   88.5697 N.ar    1  <0>        -0.2207
     28 N4         14.5268   34.2860   90.7331 N.ar    1  <0>        -0.2202
     29 N5         17.6215   32.8958   87.3140 N.3     1  <0>        -0.2494
     30 N6         16.8181   34.1376   91.1039 N.pl3   1  <0>        -0.2990
     31 N7         16.4560   35.2024   96.5311 N.pl3   1  <0>        -0.2195
     32 N8         18.9711   32.9552   87.0668 N.3     1  <0>        -0.2426
     33 F1         12.8596   38.6046   96.1101 F       1  <0>        -0.2055
     34 H1         16.2363   40.8542   98.1886 H       1  <0>         0.0619
     35 H2         17.6248   38.7816   98.3420 H       1  <0>         0.0621
     36 H3         13.9724   40.7761   97.1250 H       1  <0>         0.0646
     37 H4         18.1692   36.0539   92.2517 H       1  <0>         0.0637
     38 H5         18.1338   36.6930   94.6665 H       1  <0>         0.0637
     39 H6         14.4569   36.5578   96.3716 H       1  <0>         0.0649
     40 H7         15.3748   32.8341   93.0146 H       1  <0>         0.0643
     41 H8         14.6051   32.7081   95.9002 H       1  <0>         0.0852
     42 H9         12.4666   34.4129   90.3528 H       1  <0>         0.1048
     43 H10        21.3469   30.8515   85.8140 H       1  <0>         0.0266
     44 H11        22.6737   32.0582   85.9859 H       1  <0>         0.0266
     45 H12        21.1574   33.8884   85.5151 H       1  <0>         0.0278
     46 H13        20.9530   32.6409   84.2286 H       1  <0>         0.0278
     47 H14        21.7632   31.2108   88.1784 H       1  <0>         0.0278
     48 H15        21.6404   32.9987   87.9708 H       1  <0>         0.0278
     49 H16        18.7885   33.6035   85.0552 H       1  <0>         0.0441
     50 H17        18.9255   31.8118   85.2805 H       1  <0>         0.0441
     51 H18        19.4039   30.9401   87.6125 H       1  <0>         0.0441
     52 H19        19.5706   32.1483   88.9470 H       1  <0>         0.0441
     53 H20        17.4600   34.7515   87.6661 H       1  <0>         0.0489
     54 H21        17.9496   33.6158   89.0367 H       1  <0>         0.0489
     55 H22        18.0440   36.4301   97.1862 H       1  <0>         0.0534
     56 H23        16.9682   35.8145   98.4859 H       1  <0>         0.0534
     57 H24        13.8225   33.8332   86.3019 H       1  <0>         0.1437
     58 H25        15.2980   34.5286   86.2260 H       1  <0>         0.1437
     59 H26        17.3930   31.9910   87.6733 H       1  <0>         0.1411
     60 H27        17.7244   33.9185   90.7425 H       1  <0>         0.1536
@<TRIPOS>BOND
     1     1     2   ar
     2     1     3   ar
     3     2    17   ar
     4     3    19   ar
     5     4     5   ar
     6     4    18   ar
     7     5    20   ar
     8     6    17   ar
     9     6    19   ar
    10     7    18   ar
    11     7    21   ar
    12     8    21    1
    13     8    26    2
    14     9    27   ar
    15     9    28   ar
    16    10    11    1
    17    10    12    1
    18    11    13    1
    19    12    14    1
    20    13    32    1
    21    14    32    1
    22    15    22    1
    23    15    29    1
    24    16    17    1
    25    16    31    1
    26    18    30    1
    27    19    33    1
    28    20    21   ar
    29    20    31    1
    30    22    23   ar
    31    22    24   ar
    32    23    25    1
    33    23    27   ar
    34    24    28   ar
    35    24    30    1
    36    26    31    1
    37    29    32    1
    38     1    34    1
    39     2    35    1
    40     3    36    1
    41     4    37    1
    42     5    38    1
    43     6    39    1
    44     7    40    1
    45     8    41    1
    46     9    42    1
    47    10    43    1
    48    10    44    1
    49    11    45    1
    50    11    46    1
    51    12    47    1
    52    12    48    1
    53    13    49    1
    54    13    50    1
    55    14    51    1
    56    14    52    1
    57    15    53    1
    58    15    54    1
    59    16    55    1
    60    16    56    1
    61    25    57    1
    62    25    58    1
    63    29    59    1
    64    30    60    1
@<TRIPOS>SUBSTRUCTURE
     1 <0>         1 TEMP              0 ****  ****    0 ROOT

