
##########                                Name:          HYZ_1_2RGP
##########                    Molecular_Weight:             446.531
##########                DOCK_Rotatable_Bonds:                   7
##########                       Formal_Charge:         0.000200018
##########                     HBond_Acceptors:                   9
##########                        HBond_Donors:                   4
##########                         Heavy_Atoms:                  33
##########                            HA_RMSDs:               0.580
##########                            HA_RMSDh:               0.580
##########                            HA_RMSDm:               0.575
##########                          Grid_Score:          -79.878471
##########                     Grid_vdw_energy:          -77.991753
##########                      Grid_es_energy:           -1.886719
##########           Internal_energy_repulsive:           11.915400

@<TRIPOS>MOLECULE
HYZ_1_2RGP
 60 64 1 0 0
SMALL
USER_CHARGES


@<TRIPOS>ATOM
      1 C1         15.9529   40.1680   98.0570 C.ar    1  <0>        -0.0587
      2 C2         16.8776   39.0897   97.9307 C.ar    1  <0>        -0.0568
      3 C3         14.6492   40.0603   97.5019 C.ar    1  <0>        -0.0264
      4 C4         17.8074   35.4928   92.6746 C.ar    1  <0>        -0.0387
      5 C5         17.8736   36.0064   93.9858 C.ar    1  <0>        -0.0365
      6 C6         15.1782   37.8068   96.6971 C.ar    1  <0>        -0.0217
      7 C7         16.1646   33.7937   93.3688 C.ar    1  <0>        -0.0300
      8 C8         15.5954   33.9848   95.9184 C.2     1  <0>         0.0548
      9 C9         13.4887   33.9165   90.0341 C.ar    1  <0>         0.1201
     10 C10        21.5079   31.6925   85.7753 C.3     1  <0>        -0.0507
     11 C11        20.3395   32.2677   84.9683 C.3     1  <0>        -0.0388
     12 C12        21.4702   32.1886   87.2241 C.3     1  <0>        -0.0388
     13 C13        18.9912   32.0233   85.6734 C.3     1  <0>         0.0137
     14 C14        20.0993   31.9282   87.8792 C.3     1  <0>         0.0137
     15 C15        17.2360   33.4175   88.1194 C.3     1  <0>         0.0425
     16 C16        17.4956   36.7121   97.1031 C.3     1  <0>         0.0601
     17 C17        16.5068   37.8883   97.2488 C.ar    1  <0>        -0.0255
     18 C18        16.9652   34.4021   92.3491 C.ar    1  <0>         0.0331
     19 C19        14.2739   38.8789   96.8263 C.ar    1  <0>         0.1237
     20 C20        17.0597   35.3831   94.9787 C.ar    1  <0>         0.0606
     21 C21        16.2148   34.2966   94.6918 C.ar    1  <0>         0.0191
     22 C22        15.9330   33.5814   88.7936 C.ar    1  <0>         0.0472
     23 C23        14.7033   33.4808   88.0952 C.ar    1  <0>         0.1256
     24 C24        15.8460   33.8485   90.1589 C.ar    1  <0>         0.1324
     25 N1         14.6320   33.2145   86.7433 N.pl3   1  <0>        -0.3428
     26 N2         15.9769   34.7885   96.9105 N.2     1  <0>        -0.1868
     27 N3         13.4862   33.6507   88.7104 N.ar    1  <0>        -0.2207
     28 N4         14.6189   34.0224   90.7882 N.ar    1  <0>        -0.2202
     29 N5         17.7363   32.3015   87.6904 N.3     1  <0>        -0.2494
     30 N6         16.9318   33.9764   91.0289 N.pl3   1  <0>        -0.2990
     31 N7         16.8661   35.6394   96.3156 N.pl3   1  <0>        -0.2195
     32 N8         18.9527   32.5215   87.0920 N.3     1  <0>        -0.2426
     33 F1         13.0386   38.7648   96.2963 F       1  <0>        -0.2055
     34 H1         16.2443   41.0691   98.5760 H       1  <0>         0.0619
     35 H2         17.8671   39.1811   98.3539 H       1  <0>         0.0621
     36 H3         13.9495   40.8777   97.5963 H       1  <0>         0.0646
     37 H4         18.4128   35.9415   91.9008 H       1  <0>         0.0637
     38 H5         18.5158   36.8398   94.2297 H       1  <0>         0.0637
     39 H6         14.8715   36.9112   96.1772 H       1  <0>         0.0649
     40 H7         15.5260   32.9560   93.1302 H       1  <0>         0.0643
     41 H8         14.8863   33.1795   96.0415 H       1  <0>         0.0852
     42 H9         12.5367   34.0535   90.5255 H       1  <0>         0.1048
     43 H10        21.4392   30.5947   85.7712 H       1  <0>         0.0266
     44 H11        22.4535   32.0113   85.3125 H       1  <0>         0.0266
     45 H12        20.4879   33.3515   84.8531 H       1  <0>         0.0278
     46 H13        20.3169   31.7816   83.9817 H       1  <0>         0.0278
     47 H14        22.2435   31.6586   87.7996 H       1  <0>         0.0278
     48 H15        21.6662   33.2710   87.2323 H       1  <0>         0.0278
     49 H16        18.2087   32.5480   85.1056 H       1  <0>         0.0441
     50 H17        18.8040   30.9394   85.6866 H       1  <0>         0.0441
     51 H18        19.9479   30.8409   87.9469 H       1  <0>         0.0441
     52 H19        20.1024   32.3804   88.8820 H       1  <0>         0.0441
     53 H20        17.1563   34.0436   87.2185 H       1  <0>         0.0489
     54 H21        17.9698   33.7794   88.8545 H       1  <0>         0.0489
     55 H22        18.4052   37.0584   96.5907 H       1  <0>         0.0534
     56 H23        17.7601   36.3291   98.0997 H       1  <0>         0.0534
     57 H24        13.6741   33.1949   86.4570 H       1  <0>         0.1437
     58 H25        15.1165   33.9281   86.2372 H       1  <0>         0.1437
     59 H26        17.8582   31.6780   88.4627 H       1  <0>         0.1411
     60 H27        17.8183   33.7229   90.6418 H       1  <0>         0.1536
@<TRIPOS>BOND
     1     1     2   ar
     2     1     3   ar
     3     2    17   ar
     4     3    19   ar
     5     4     5   ar
     6     4    18   ar
     7     5    20   ar
     8     6    17   ar
     9     6    19   ar
    10     7    18   ar
    11     7    21   ar
    12     8    21    1
    13     8    26    2
    14     9    27   ar
    15     9    28   ar
    16    10    11    1
    17    10    12    1
    18    11    13    1
    19    12    14    1
    20    13    32    1
    21    14    32    1
    22    15    22    1
    23    15    29    1
    24    16    17    1
    25    16    31    1
    26    18    30    1
    27    19    33    1
    28    20    21   ar
    29    20    31    1
    30    22    23   ar
    31    22    24   ar
    32    23    25    1
    33    23    27   ar
    34    24    28   ar
    35    24    30    1
    36    26    31    1
    37    29    32    1
    38     1    34    1
    39     2    35    1
    40     3    36    1
    41     4    37    1
    42     5    38    1
    43     6    39    1
    44     7    40    1
    45     8    41    1
    46     9    42    1
    47    10    43    1
    48    10    44    1
    49    11    45    1
    50    11    46    1
    51    12    47    1
    52    12    48    1
    53    13    49    1
    54    13    50    1
    55    14    51    1
    56    14    52    1
    57    15    53    1
    58    15    54    1
    59    16    55    1
    60    16    56    1
    61    25    57    1
    62    25    58    1
    63    29    59    1
    64    30    60    1
@<TRIPOS>SUBSTRUCTURE
     1 <0>         1 TEMP              0 ****  ****    0 ROOT

