
##########                                Name:          HYZ_1_2RGP
##########                    Molecular_Weight:             446.531
##########                DOCK_Rotatable_Bonds:                   7
##########                       Formal_Charge:         0.000200018
##########                     HBond_Acceptors:                   9
##########                        HBond_Donors:                   4
##########                         Heavy_Atoms:                  33
##########                            HA_RMSDs:               0.892
##########                            HA_RMSDh:               0.892
##########                            HA_RMSDm:               0.822
##########                          Grid_Score:          -75.933327
##########                     Grid_vdw_energy:          -74.986931
##########                      Grid_es_energy:           -0.946394
##########           Internal_energy_repulsive:           11.280048

@<TRIPOS>MOLECULE
HYZ_1_2RGP
 60 64 1 0 0
SMALL
USER_CHARGES


@<TRIPOS>ATOM
      1 C1         15.5365   39.8815   97.5399 C.ar    1  <0>        -0.0587
      2 C2         16.5034   38.8338   97.5099 C.ar    1  <0>        -0.0568
      3 C3         14.1992   39.6321   97.1293 C.ar    1  <0>        -0.0264
      4 C4         17.6922   35.6682   92.5120 C.ar    1  <0>        -0.0387
      5 C5         17.6768   36.0487   93.8694 C.ar    1  <0>        -0.0365
      6 C6         14.7787   37.2974   96.6611 C.ar    1  <0>        -0.0217
      7 C7         16.2764   33.7104   92.9924 C.ar    1  <0>        -0.0300
      8 C8         15.6594   33.5644   95.5339 C.2     1  <0>         0.0548
      9 C9         13.6366   33.9404   89.6115 C.ar    1  <0>         0.1201
     10 C10        22.0325   31.9074   86.1090 C.3     1  <0>        -0.0507
     11 C11        20.9173   32.0647   85.0704 C.3     1  <0>        -0.0388
     12 C12        21.7463   32.7541   87.3531 C.3     1  <0>        -0.0388
     13 C13        19.5290   31.8100   85.6888 C.3     1  <0>         0.0137
     14 C14        20.3441   32.4676   87.9262 C.3     1  <0>         0.0137
     15 C15        17.4634   33.5163   87.8414 C.3     1  <0>         0.0425
     16 C16        17.1762   36.3764   97.0318 C.3     1  <0>         0.0601
     17 C17        16.1419   37.5215   97.0705 C.ar    1  <0>        -0.0255
     18 C18        17.0024   34.5178   92.0585 C.ar    1  <0>         0.0331
     19 C19        13.8327   38.3403   96.6932 C.ar    1  <0>         0.1237
     20 C20        16.9398   35.2277   94.7748 C.ar    1  <0>         0.0606
     21 C21        16.2464   34.0772   94.3601 C.ar    1  <0>         0.0191
     22 C22        16.1330   33.6546   88.4659 C.ar    1  <0>         0.0472
     23 C23        14.9327   33.4524   87.7389 C.ar    1  <0>         0.1256
     24 C24        15.9892   33.9968   89.8096 C.ar    1  <0>         0.1324
     25 N1         14.9180   33.1041   86.4039 N.pl3   1  <0>        -0.3428
     26 N2         15.9224   34.3042   96.6105 N.2     1  <0>        -0.1868
     27 N3         13.6897   33.5976   88.3066 N.ar    1  <0>        -0.2207
     28 N4         14.7355   34.1462   90.3907 N.ar    1  <0>        -0.2202
     29 N5         17.9979   32.4114   87.4252 N.3     1  <0>        -0.2494
     30 N6         17.0389   34.2290   90.7018 N.pl3   1  <0>        -0.2990
     31 N7         16.7000   35.3185   96.1257 N.pl3   1  <0>        -0.2195
     32 N8         19.2456   32.6506   86.9034 N.3     1  <0>        -0.2426
     33 F1         12.5658   38.0914   96.3022 F       1  <0>        -0.2055
     34 H1         15.8214   40.8677   97.8758 H       1  <0>         0.0619
     35 H2         17.5180   39.0330   97.8219 H       1  <0>         0.0621
     36 H3         13.4674   40.4262   97.1506 H       1  <0>         0.0646
     37 H4         18.2425   36.2677   91.8021 H       1  <0>         0.0637
     38 H5         18.2025   36.9280   94.2112 H       1  <0>         0.0637
     39 H6         14.4782   36.3160   96.3250 H       1  <0>         0.0649
     40 H7         15.7547   32.8268   92.6556 H       1  <0>         0.0643
     41 H8         15.0596   32.6665   95.5584 H       1  <0>         0.0852
     42 H9         12.6638   34.0587   90.0655 H       1  <0>         0.1048
     43 H10        22.1000   30.8499   86.4039 H       1  <0>         0.0266
     44 H11        22.9839   32.2348   85.6647 H       1  <0>         0.0266
     45 H12        20.9455   33.0899   84.6727 H       1  <0>         0.0278
     46 H13        21.0829   31.3395   84.2600 H       1  <0>         0.0278
     47 H14        22.4972   32.5185   88.1216 H       1  <0>         0.0278
     48 H15        21.8054   33.8175   87.0782 H       1  <0>         0.0278
     49 H16        18.7686   32.0411   84.9283 H       1  <0>         0.0441
     50 H17        19.4760   30.7520   85.9855 H       1  <0>         0.0441
     51 H18        20.3197   31.4261   88.2791 H       1  <0>         0.0441
     52 H19        20.1614   33.1617   88.7597 H       1  <0>         0.0441
     53 H20        17.4083   34.1472   86.9421 H       1  <0>         0.0489
     54 H21        18.1624   33.8848   88.6066 H       1  <0>         0.0489
     55 H22        18.1397   36.7641   96.6695 H       1  <0>         0.0534
     56 H23        17.3048   35.9633   98.0431 H       1  <0>         0.0534
     57 H24        13.9719   33.0203   86.0912 H       1  <0>         0.1437
     58 H25        15.3840   33.8099   85.8703 H       1  <0>         0.1437
     59 H26        18.0794   31.7763   88.1932 H       1  <0>         0.1411
     60 H27        17.9545   34.1798   90.3026 H       1  <0>         0.1536
@<TRIPOS>BOND
     1     1     2   ar
     2     1     3   ar
     3     2    17   ar
     4     3    19   ar
     5     4     5   ar
     6     4    18   ar
     7     5    20   ar
     8     6    17   ar
     9     6    19   ar
    10     7    18   ar
    11     7    21   ar
    12     8    21    1
    13     8    26    2
    14     9    27   ar
    15     9    28   ar
    16    10    11    1
    17    10    12    1
    18    11    13    1
    19    12    14    1
    20    13    32    1
    21    14    32    1
    22    15    22    1
    23    15    29    1
    24    16    17    1
    25    16    31    1
    26    18    30    1
    27    19    33    1
    28    20    21   ar
    29    20    31    1
    30    22    23   ar
    31    22    24   ar
    32    23    25    1
    33    23    27   ar
    34    24    28   ar
    35    24    30    1
    36    26    31    1
    37    29    32    1
    38     1    34    1
    39     2    35    1
    40     3    36    1
    41     4    37    1
    42     5    38    1
    43     6    39    1
    44     7    40    1
    45     8    41    1
    46     9    42    1
    47    10    43    1
    48    10    44    1
    49    11    45    1
    50    11    46    1
    51    12    47    1
    52    12    48    1
    53    13    49    1
    54    13    50    1
    55    14    51    1
    56    14    52    1
    57    15    53    1
    58    15    54    1
    59    16    55    1
    60    16    56    1
    61    25    57    1
    62    25    58    1
    63    29    59    1
    64    30    60    1
@<TRIPOS>SUBSTRUCTURE
     1 <0>         1 TEMP              0 ****  ****    0 ROOT

