
##########                                Name:          HYZ_1_2RGP
##########                    Molecular_Weight:             446.531
##########                DOCK_Rotatable_Bonds:                   7
##########                       Formal_Charge:         0.000200018
##########                     HBond_Acceptors:                   9
##########                        HBond_Donors:                   4
##########                         Heavy_Atoms:                  33
##########                            HA_RMSDs:               0.748
##########                            HA_RMSDh:               0.748
##########                            HA_RMSDm:               0.717
##########                          Grid_Score:          -80.275909
##########                     Grid_vdw_energy:          -78.711639
##########                      Grid_es_energy:           -1.564270
##########           Internal_energy_repulsive:           10.695455

@<TRIPOS>MOLECULE
HYZ_1_2RGP
 60 64 1 0 0
SMALL
USER_CHARGES


@<TRIPOS>ATOM
      1 C1         15.9421   40.0481   97.8501 C.ar    1  <0>        -0.0587
      2 C2         16.7277   38.8615   97.9415 C.ar    1  <0>        -0.0568
      3 C3         14.6328   39.9980   97.3000 C.ar    1  <0>        -0.0264
      4 C4         17.6899   35.5650   93.0801 C.ar    1  <0>        -0.0387
      5 C5         17.6532   35.9425   94.4379 C.ar    1  <0>        -0.0365
      6 C6         14.8794   37.5875   96.9333 C.ar    1  <0>        -0.0217
      7 C7         16.0566   33.7658   93.4837 C.ar    1  <0>        -0.0300
      8 C8         15.3135   33.6805   95.9940 C.2     1  <0>         0.0548
      9 C9         13.6078   34.2508   89.9966 C.ar    1  <0>         0.1201
     10 C10        21.7682   31.7861   86.1870 C.3     1  <0>        -0.0507
     11 C11        20.8869   32.7577   85.3957 C.3     1  <0>        -0.0388
     12 C12        21.5182   31.9210   87.6924 C.3     1  <0>        -0.0388
     13 C13        19.4036   32.6267   85.7928 C.3     1  <0>         0.0137
     14 C14        20.0206   31.7911   88.0343 C.3     1  <0>         0.0137
     15 C15        17.4655   33.6499   88.3490 C.3     1  <0>         0.0425
     16 C16        17.0474   36.3150   97.5768 C.3     1  <0>         0.0601
     17 C17        16.2102   37.6085   97.4853 C.ar    1  <0>        -0.0255
     18 C18        16.9045   34.4942   92.5885 C.ar    1  <0>         0.0331
     19 C19        14.1134   38.7661   96.8463 C.ar    1  <0>         0.1237
     20 C20        16.7942   35.2017   95.3040 C.ar    1  <0>         0.0606
     21 C21        16.0034   34.1311   94.8511 C.ar    1  <0>         0.0191
     22 C22        16.1233   33.8492   88.9303 C.ar    1  <0>         0.0472
     23 C23        14.9438   33.7874   88.1459 C.ar    1  <0>         0.1256
     24 C24        15.9473   34.1133   90.2876 C.ar    1  <0>         0.1324
     25 N1         14.9609   33.5287   86.7908 N.pl3   1  <0>        -0.3428
     26 N2         15.6038   34.3866   97.0862 N.2     1  <0>        -0.1868
     27 N3         13.6915   33.9904   88.6744 N.ar    1  <0>        -0.2207
     28 N4         14.6842   34.3205   90.8294 N.ar    1  <0>        -0.2202
     29 N5         17.8286   32.6622   87.5925 N.3     1  <0>        -0.2494
     30 N6         16.9719   34.2058   91.2330 N.pl3   1  <0>        -0.2990
     31 N7         16.5044   35.3146   96.6433 N.pl3   1  <0>        -0.2195
     32 N8         19.1591   32.7709   87.2699 N.3     1  <0>        -0.2426
     33 F1         12.8713   38.7061   96.3234 F       1  <0>        -0.2055
     34 H1         16.3433   40.9878   98.2001 H       1  <0>         0.0619
     35 H2         17.7226   38.9093   98.3591 H       1  <0>         0.0621
     36 H3         14.0385   40.8971   97.2295 H       1  <0>         0.0646
     37 H4         18.3316   36.1047   92.3994 H       1  <0>         0.0637
     38 H5         18.2522   36.7611   94.8086 H       1  <0>         0.0637
     39 H6         14.4637   36.6549   96.5813 H       1  <0>         0.0649
     40 H7         15.4609   32.9424   93.1181 H       1  <0>         0.0643
     41 H8         14.6225   32.8505   95.9857 H       1  <0>         0.0852
     42 H9         12.6277   34.4137   90.4202 H       1  <0>         0.1048
     43 H10        21.5345   30.7572   85.8764 H       1  <0>         0.0266
     44 H11        22.8247   32.0106   85.9785 H       1  <0>         0.0266
     45 H12        21.2194   33.7859   85.6015 H       1  <0>         0.0278
     46 H13        20.9877   32.5346   84.3233 H       1  <0>         0.0278
     47 H14        22.0704   31.1261   88.2151 H       1  <0>         0.0278
     48 H15        21.8719   32.9089   88.0224 H       1  <0>         0.0278
     49 H16        18.8401   33.4165   85.2746 H       1  <0>         0.0441
     50 H17        19.0539   31.6305   85.4842 H       1  <0>         0.0441
     51 H18        19.6942   30.7715   87.7819 H       1  <0>         0.0441
     52 H19        19.8924   31.9820   89.1099 H       1  <0>         0.0441
     53 H20        17.6273   34.5424   87.7268 H       1  <0>         0.0489
     54 H21        18.1322   33.5834   89.2213 H       1  <0>         0.0489
     55 H22        18.0924   36.5345   97.3128 H       1  <0>         0.0534
     56 H23        17.0041   35.9213   98.6030 H       1  <0>         0.0534
     57 H24        14.0256   33.5383   86.4373 H       1  <0>         0.1437
     58 H25        15.5006   34.2298   86.3246 H       1  <0>         0.1437
     59 H26        17.6782   31.8023   88.0805 H       1  <0>         0.1411
     60 H27        17.8923   34.0390   90.8794 H       1  <0>         0.1536
@<TRIPOS>BOND
     1     1     2   ar
     2     1     3   ar
     3     2    17   ar
     4     3    19   ar
     5     4     5   ar
     6     4    18   ar
     7     5    20   ar
     8     6    17   ar
     9     6    19   ar
    10     7    18   ar
    11     7    21   ar
    12     8    21    1
    13     8    26    2
    14     9    27   ar
    15     9    28   ar
    16    10    11    1
    17    10    12    1
    18    11    13    1
    19    12    14    1
    20    13    32    1
    21    14    32    1
    22    15    22    1
    23    15    29    1
    24    16    17    1
    25    16    31    1
    26    18    30    1
    27    19    33    1
    28    20    21   ar
    29    20    31    1
    30    22    23   ar
    31    22    24   ar
    32    23    25    1
    33    23    27   ar
    34    24    28   ar
    35    24    30    1
    36    26    31    1
    37    29    32    1
    38     1    34    1
    39     2    35    1
    40     3    36    1
    41     4    37    1
    42     5    38    1
    43     6    39    1
    44     7    40    1
    45     8    41    1
    46     9    42    1
    47    10    43    1
    48    10    44    1
    49    11    45    1
    50    11    46    1
    51    12    47    1
    52    12    48    1
    53    13    49    1
    54    13    50    1
    55    14    51    1
    56    14    52    1
    57    15    53    1
    58    15    54    1
    59    16    55    1
    60    16    56    1
    61    25    57    1
    62    25    58    1
    63    29    59    1
    64    30    60    1
@<TRIPOS>SUBSTRUCTURE
     1 <0>         1 TEMP              0 ****  ****    0 ROOT

