
##########                                Name:      413_H1261_1W7X
##########                    Molecular_Weight:             538.603
##########                DOCK_Rotatable_Bonds:                  12
##########                       Formal_Charge:         0.000799671
##########                     HBond_Acceptors:                   9
##########                        HBond_Donors:                   6
##########                         Heavy_Atoms:                  40
##########                            HA_RMSDs:               0.326
##########                            HA_RMSDh:               0.326
##########                            HA_RMSDm:               0.326
##########                          Grid_Score:          -97.089203
##########                     Grid_vdw_energy:          -59.575409
##########                      Grid_es_energy:          -37.513798
##########           Internal_energy_repulsive:           20.435946

@<TRIPOS>MOLECULE
413_H1261_1W7X
 70 73 1 0 0
SMALL
USER_CHARGES


@<TRIPOS>ATOM
      1 C1         12.4703   43.8100   34.7536 C.3     1  <0>         0.0431
      2 C2         11.4657   46.1562   26.3721 C.ar    1  <0>        -0.0617
      3 C3          8.3973   43.1450   37.3515 C.ar    1  <0>        -0.0617
      4 C4         10.2398   46.7394   26.6919 C.ar    1  <0>        -0.0614
      5 C5         12.2632   45.6427   27.3949 C.ar    1  <0>        -0.0614
      6 C6          8.5020   43.4673   35.9989 C.ar    1  <0>        -0.0614
      7 C7          7.7907   41.9490   37.7514 C.ar    1  <0>        -0.0614
      8 C8          9.8190   46.8224   28.0215 C.ar    1  <0>        -0.0564
      9 C9         11.8463   45.7214   28.7240 C.ar    1  <0>        -0.0564
     10 C10         7.9670   42.5930   35.0510 C.ar    1  <0>        -0.0564
     11 C11         7.2664   41.0711   36.7917 C.ar    1  <0>        -0.0564
     12 C12        12.4122   38.4462   29.1413 C.ar    1  <0>        -0.0452
     13 C13        14.0532   37.8533   30.8309 C.ar    1  <0>        -0.0452
     14 C14        11.5481   38.9047   30.1197 C.ar    1  <0>        -0.0400
     15 C15        13.1669   38.3144   31.8059 C.ar    1  <0>        -0.0400
     16 C16         9.5284   42.1625   30.9504 C.ar    1  <0>        -0.0537
     17 C17         9.7801   43.5128   30.7309 C.ar    1  <0>        -0.0288
     18 C18        11.0213   42.2226   32.8536 C.ar    1  <0>        -0.0237
     19 C19        10.1339   46.3928   30.4830 C.3     1  <0>         0.0794
     20 C20        10.6198   46.3024   29.0507 C.ar    1  <0>        -0.0214
     21 C21         7.3460   41.3946   35.4379 C.ar    1  <0>        -0.0217
     22 C22        13.6722   37.9319   29.4840 C.ar    1  <0>         0.0611
     23 C23        11.9036   38.8287   31.4691 C.ar    1  <0>         0.0279
     24 C24        10.1580   41.5013   32.0229 C.ar    1  <0>        -0.0159
     25 C25        10.6466   44.2272   31.5637 C.ar    1  <0>         0.1065
     26 C26        11.2630   43.5746   32.6371 C.ar    1  <0>         0.1060
     27 C27         6.7910   40.4649   34.4100 C.3     1  <0>         0.0879
     28 C28         9.8645   40.0556   32.2544 C.3     1  <0>         0.1231
     29 C29        14.5649   37.4549   28.3818 C.cat   1  <0>         0.2605
     30 C30         5.4742   41.0458   33.9993 C.2     1  <0>         0.0664
     31 C31         8.9621   39.9570   33.4509 C.2     1  <0>         0.2386
     32 N1         14.0937   37.5286   27.1270 N.pl3   1  <0>        -0.3060
     33 N2         15.7898   36.9710   28.6286 N.pl3   1  <0>        -0.2158
     34 N3         11.0815   39.2761   32.4594 N.pl3   1  <0>        -0.3294
     35 N4          7.7261   40.4402   33.3002 N.am    1  <0>        -0.3015
     36 O1          4.5524   41.0577   34.8487 O.co2   1  <0>        -0.5475
     37 O2          5.3668   41.4921   32.8360 O.co2   1  <0>        -0.5475
     38 O3          9.3341   39.4741   34.5164 O.2     1  <0>        -0.2734
     39 O4         12.1287   44.2817   33.4419 O.3     1  <0>        -0.3453
     40 O5         10.9117   45.5681   31.3533 O.3     1  <0>        -0.3375
     41 H1         13.1697   44.5150   35.2266 H       1  <0>         0.0529
     42 H2         11.5587   43.7329   35.3642 H       1  <0>         0.0529
     43 H3         12.9443   42.8205   34.6753 H       1  <0>         0.0529
     44 H4         11.7938   46.1028   25.3445 H       1  <0>         0.0618
     45 H5          8.7873   43.8234   38.0959 H       1  <0>         0.0618
     46 H6          9.6109   47.1298   25.9055 H       1  <0>         0.0618
     47 H7         13.2100   45.1810   27.1563 H       1  <0>         0.0618
     48 H8          8.9897   44.3797   35.6891 H       1  <0>         0.0618
     49 H9          7.7261   41.7016   38.8007 H       1  <0>         0.0618
     50 H10         8.8739   47.2885   28.2585 H       1  <0>         0.0621
     51 H11        12.4781   45.3292   29.5072 H       1  <0>         0.0621
     52 H12         8.0320   42.8428   34.0023 H       1  <0>         0.0621
     53 H13         6.8021   40.1463   37.1006 H       1  <0>         0.0621
     54 H14        12.1142   38.4844   28.1040 H       1  <0>         0.0627
     55 H15        15.0133   37.4441   31.1086 H       1  <0>         0.0627
     56 H16        10.5932   39.3239   29.8390 H       1  <0>         0.0636
     57 H17        13.4596   38.2747   32.8448 H       1  <0>         0.0636
     58 H18         8.8535   41.6238   30.3018 H       1  <0>         0.0622
     59 H19         9.2993   44.0165   29.9054 H       1  <0>         0.0644
     60 H20        11.5083   41.7212   33.6769 H       1  <0>         0.0648
     61 H21        10.2138   47.4372   30.8191 H       1  <0>         0.0615
     62 H22         9.0859   46.0611   30.5233 H       1  <0>         0.0615
     63 H23         6.6499   39.4360   34.7729 H       1  <0>         0.0610
     64 H24         9.3752   39.6357   31.3632 H       1  <0>         0.0645
     65 H25        14.6588   37.2200   26.3618 H       1  <0>         0.1477
     66 H26        13.1776   37.8919   26.9574 H       1  <0>         0.1477
     67 H27        16.3657   36.6589   27.8729 H       1  <0>         0.4359
     68 H28        16.1281   36.9218   29.5684 H       1  <0>         0.4359
     69 H29        10.7724   38.4459   32.9233 H       1  <0>         0.1471
     70 H30         7.4404   40.7907   32.4083 H       1  <0>         0.1497
@<TRIPOS>BOND
     1     1    39    1
     2     2     4   ar
     3     2     5   ar
     4     3     6   ar
     5     3     7   ar
     6     4     8   ar
     7     5     9   ar
     8     6    10   ar
     9     7    11   ar
    10     8    20   ar
    11     9    20   ar
    12    10    21   ar
    13    11    21   ar
    14    12    14   ar
    15    12    22   ar
    16    13    15   ar
    17    13    22   ar
    18    14    23   ar
    19    15    23   ar
    20    16    17   ar
    21    16    24   ar
    22    17    25   ar
    23    18    24   ar
    24    18    26   ar
    25    19    20    1
    26    19    40    1
    27    21    27    1
    28    22    29    1
    29    23    34    1
    30    24    28    1
    31    25    26   ar
    32    25    40    1
    33    26    39    1
    34    27    30    1
    35    27    35    1
    36    28    31    1
    37    28    34    1
    38    29    32    1
    39    29    33    2
    40    30    36    1
    41    30    37    2
    42    31    35   am
    43    31    38    2
    44     1    41    1
    45     1    42    1
    46     1    43    1
    47     2    44    1
    48     3    45    1
    49     4    46    1
    50     5    47    1
    51     6    48    1
    52     7    49    1
    53     8    50    1
    54     9    51    1
    55    10    52    1
    56    11    53    1
    57    12    54    1
    58    13    55    1
    59    14    56    1
    60    15    57    1
    61    16    58    1
    62    17    59    1
    63    18    60    1
    64    19    61    1
    65    19    62    1
    66    27    63    1
    67    28    64    1
    68    32    65    1
    69    32    66    1
    70    33    67    1
    71    33    68    1
    72    34    69    1
    73    35    70    1
@<TRIPOS>SUBSTRUCTURE
     1 <0>         1 TEMP              0 ****  ****    0 ROOT

