
##########                                Name:      413_H1261_1W7X
##########                    Molecular_Weight:             538.603
##########                DOCK_Rotatable_Bonds:                  12
##########                       Formal_Charge:         0.000799671
##########                     HBond_Acceptors:                   9
##########                        HBond_Donors:                   6
##########                         Heavy_Atoms:                  40
##########                            HA_RMSDs:               0.255
##########                            HA_RMSDh:               0.255
##########                            HA_RMSDm:               0.255
##########                          Grid_Score:         -103.570831
##########                     Grid_vdw_energy:          -64.949768
##########                      Grid_es_energy:          -38.621059
##########           Internal_energy_repulsive:           24.450254

@<TRIPOS>MOLECULE
413_H1261_1W7X
 70 73 1 0 0
SMALL
USER_CHARGES


@<TRIPOS>ATOM
      1 C1         12.8630   43.6468   34.8043 C.3     1  <0>         0.0431
      2 C2         11.2617   45.8442   26.3898 C.ar    1  <0>        -0.0617
      3 C3          8.7071   43.2787   37.2982 C.ar    1  <0>        -0.0617
      4 C4         10.2405   46.6796   26.8421 C.ar    1  <0>        -0.0614
      5 C5         12.1027   45.2320   27.3191 C.ar    1  <0>        -0.0614
      6 C6          8.9032   43.5506   35.9447 C.ar    1  <0>        -0.0614
      7 C7          7.9770   42.1536   37.6977 C.ar    1  <0>        -0.0614
      8 C8         10.0681   46.9136   28.2087 C.ar    1  <0>        -0.0564
      9 C9         11.9332   45.4608   28.6849 C.ar    1  <0>        -0.0564
     10 C10         8.3362   42.7000   34.9940 C.ar    1  <0>        -0.0564
     11 C11         7.4208   41.2981   36.7358 C.ar    1  <0>        -0.0564
     12 C12        12.4719   38.5184   28.9890 C.ar    1  <0>        -0.0452
     13 C13        14.1003   37.8028   30.6428 C.ar    1  <0>        -0.0452
     14 C14        11.6419   38.9926   29.9892 C.ar    1  <0>        -0.0400
     15 C15        13.2482   38.2808   31.6400 C.ar    1  <0>        -0.0400
     16 C16         9.9380   42.3162   30.8691 C.ar    1  <0>        -0.0537
     17 C17        10.2745   43.6536   30.6872 C.ar    1  <0>        -0.0288
     18 C18        11.2581   42.2892   32.8967 C.ar    1  <0>        -0.0237
     19 C19        10.6952   46.5542   30.6212 C.3     1  <0>         0.0794
     20 C20        10.9123   46.2946   29.1442 C.ar    1  <0>        -0.0214
     21 C21         7.5922   41.5735   35.3798 C.ar    1  <0>        -0.0217
     22 C22        13.7090   37.9350   29.3032 C.ar    1  <0>         0.0611
     23 C23        12.0079   38.8643   31.3317 C.ar    1  <0>         0.0279
     24 C24        10.4371   41.6175   31.9855 C.ar    1  <0>        -0.0159
     25 C25        11.0982   44.3184   31.6006 C.ar    1  <0>         0.1065
     26 C26        11.5843   43.6288   32.7169 C.ar    1  <0>         0.1060
     27 C27         7.0038   40.6671   34.3496 C.3     1  <0>         0.0879
     28 C28        10.0533   40.1868   32.1746 C.3     1  <0>         0.1231
     29 C29        14.5654   37.4441   28.1784 C.cat   1  <0>         0.2605
     30 C30         5.7025   41.2893   33.9503 C.2     1  <0>         0.0664
     31 C31         9.1559   40.1080   33.3764 C.2     1  <0>         0.2386
     32 N1         14.0847   37.5732   26.9317 N.pl3   1  <0>        -0.3060
     33 N2         15.7679   36.8951   28.3979 N.pl3   1  <0>        -0.2158
     34 N3         11.2193   39.3251   32.3430 N.pl3   1  <0>        -0.3294
     35 N4          7.9314   40.6217   33.2341 N.am    1  <0>        -0.3015
     36 O1          4.7452   41.2051   34.7553 O.co2   1  <0>        -0.5475
     37 O2          5.6424   41.8634   32.8410 O.co2   1  <0>        -0.5475
     38 O3          9.5224   39.6140   34.4388 O.2     1  <0>        -0.2734
     39 O4         12.4094   44.2865   33.6023 O.3     1  <0>        -0.3453
     40 O5         11.4466   45.6456   31.4289 O.3     1  <0>        -0.3375
     41 H1         13.5067   44.3383   35.3677 H       1  <0>         0.0529
     42 H2         11.9958   43.3686   35.4211 H       1  <0>         0.0529
     43 H3         13.4341   42.7431   34.5454 H       1  <0>         0.0529
     44 H4         11.3996   45.6734   25.3324 H       1  <0>         0.0618
     45 H5          9.1217   43.9412   38.0436 H       1  <0>         0.0618
     46 H6          9.5777   47.1492   26.1303 H       1  <0>         0.0618
     47 H7         12.8905   44.5761   26.9789 H       1  <0>         0.0618
     48 H8          9.4852   44.4065   35.6364 H       1  <0>         0.0618
     49 H9          7.8417   41.9439   38.7485 H       1  <0>         0.0618
     50 H10         9.2825   47.5732   28.5466 H       1  <0>         0.0621
     51 H11        12.5979   44.9887   29.3932 H       1  <0>         0.0621
     52 H12         8.4721   42.9121   33.9438 H       1  <0>         0.0621
     53 H13         6.8610   40.4278   37.0447 H       1  <0>         0.0621
     54 H14        12.1649   38.5980   27.9566 H       1  <0>         0.0627
     55 H15        15.0423   37.3406   30.8984 H       1  <0>         0.0627
     56 H16        10.7056   39.4647   29.7308 H       1  <0>         0.0636
     57 H17        13.5499   38.1999   32.6739 H       1  <0>         0.0636
     58 H18         9.2973   41.8162   30.1578 H       1  <0>         0.0622
     59 H19         9.8939   44.1861   29.8281 H       1  <0>         0.0644
     60 H20        11.6451   41.7588   33.7542 H       1  <0>         0.0648
     61 H21        11.0154   47.5811   30.8513 H       1  <0>         0.0615
     62 H22         9.6263   46.4306   30.8494 H       1  <0>         0.0615
     63 H23         6.8344   39.6406   34.7070 H       1  <0>         0.0610
     64 H24         9.5310   39.8276   31.2757 H       1  <0>         0.0645
     65 H25        14.6257   37.2577   26.1521 H       1  <0>         0.1477
     66 H26        13.1856   37.9848   26.7826 H       1  <0>         0.1477
     67 H27        16.3196   36.5754   27.6276 H       1  <0>         0.4359
     68 H28        16.1136   36.8052   29.3319 H       1  <0>         0.4359
     69 H29        10.8602   38.4991   32.7775 H       1  <0>         0.1471
     70 H30         7.6489   40.9808   32.3446 H       1  <0>         0.1497
@<TRIPOS>BOND
     1     1    39    1
     2     2     4   ar
     3     2     5   ar
     4     3     6   ar
     5     3     7   ar
     6     4     8   ar
     7     5     9   ar
     8     6    10   ar
     9     7    11   ar
    10     8    20   ar
    11     9    20   ar
    12    10    21   ar
    13    11    21   ar
    14    12    14   ar
    15    12    22   ar
    16    13    15   ar
    17    13    22   ar
    18    14    23   ar
    19    15    23   ar
    20    16    17   ar
    21    16    24   ar
    22    17    25   ar
    23    18    24   ar
    24    18    26   ar
    25    19    20    1
    26    19    40    1
    27    21    27    1
    28    22    29    1
    29    23    34    1
    30    24    28    1
    31    25    26   ar
    32    25    40    1
    33    26    39    1
    34    27    30    1
    35    27    35    1
    36    28    31    1
    37    28    34    1
    38    29    32    1
    39    29    33    2
    40    30    36    1
    41    30    37    2
    42    31    35   am
    43    31    38    2
    44     1    41    1
    45     1    42    1
    46     1    43    1
    47     2    44    1
    48     3    45    1
    49     4    46    1
    50     5    47    1
    51     6    48    1
    52     7    49    1
    53     8    50    1
    54     9    51    1
    55    10    52    1
    56    11    53    1
    57    12    54    1
    58    13    55    1
    59    14    56    1
    60    15    57    1
    61    16    58    1
    62    17    59    1
    63    18    60    1
    64    19    61    1
    65    19    62    1
    66    27    63    1
    67    28    64    1
    68    32    65    1
    69    32    66    1
    70    33    67    1
    71    33    68    1
    72    34    69    1
    73    35    70    1
@<TRIPOS>SUBSTRUCTURE
     1 <0>         1 TEMP              0 ****  ****    0 ROOT

