
##########                                Name:      413_H1261_1W7X
##########                    Molecular_Weight:             538.603
##########                DOCK_Rotatable_Bonds:                  12
##########                       Formal_Charge:         0.000799671
##########                     HBond_Acceptors:                   9
##########                        HBond_Donors:                   6
##########                         Heavy_Atoms:                  40
##########                            HA_RMSDs:               0.336
##########                            HA_RMSDh:               0.336
##########                            HA_RMSDm:               0.336
##########                          Grid_Score:         -102.133545
##########                     Grid_vdw_energy:          -63.923180
##########                      Grid_es_energy:          -38.210361
##########           Internal_energy_repulsive:           22.596231

@<TRIPOS>MOLECULE
413_H1261_1W7X
 70 73 1 0 0
SMALL
USER_CHARGES


@<TRIPOS>ATOM
      1 C1         12.4000   43.8178   35.2417 C.3     1  <0>         0.0431
      2 C2         10.7990   46.1329   26.7490 C.ar    1  <0>        -0.0617
      3 C3          8.3629   43.3583   37.3671 C.ar    1  <0>        -0.0617
      4 C4          9.7555   46.8532   27.3298 C.ar    1  <0>        -0.0614
      5 C5         11.7761   45.5683   27.5690 C.ar    1  <0>        -0.0614
      6 C6          8.4000   43.6797   36.0108 C.ar    1  <0>        -0.0614
      7 C7          7.8563   42.1243   37.7905 C.ar    1  <0>        -0.0614
      8 C8          9.6943   47.0210   28.7155 C.ar    1  <0>        -0.0564
      9 C9         11.7181   45.7313   28.9534 C.ar    1  <0>        -0.0564
     10 C10         7.8979   42.7645   35.0838 C.ar    1  <0>        -0.0564
     11 C11         7.3648   41.2062   36.8514 C.ar    1  <0>        -0.0564
     12 C12        12.3153   38.5681   29.1074 C.ar    1  <0>        -0.0452
     13 C13        13.9434   37.7950   30.7355 C.ar    1  <0>        -0.0452
     14 C14        11.5012   39.0384   30.1223 C.ar    1  <0>        -0.0400
     15 C15        13.1071   38.2695   31.7477 C.ar    1  <0>        -0.0400
     16 C16         9.8417   42.3750   31.0927 C.ar    1  <0>        -0.0537
     17 C17        10.1880   43.7143   30.9468 C.ar    1  <0>        -0.0288
     18 C18        11.1634   42.2832   33.1173 C.ar    1  <0>        -0.0237
     19 C19        10.5783   46.6348   31.0418 C.3     1  <0>         0.0794
     20 C20        10.6756   46.4497   29.5412 C.ar    1  <0>        -0.0214
     21 C21         7.3768   41.5271   35.4947 C.ar    1  <0>        -0.0217
     22 C22        13.5444   37.9579   29.4015 C.ar    1  <0>         0.0611
     23 C23        11.8749   38.8797   31.4595 C.ar    1  <0>         0.0279
     24 C24        10.3366   41.6425   32.1893 C.ar    1  <0>        -0.0159
     25 C25        11.0175   44.3479   31.8769 C.ar    1  <0>         0.1065
     26 C26        11.4995   43.6247   32.9736 C.ar    1  <0>         0.1060
     27 C27         6.8560   40.5547   34.4886 C.3     1  <0>         0.0879
     28 C28         9.9423   40.2101   32.3399 C.3     1  <0>         0.1231
     29 C29        14.3837   37.4727   28.2615 C.cat   1  <0>         0.2605
     30 C30         5.5188   41.0776   34.0661 C.2     1  <0>         0.0664
     31 C31         9.0443   40.1057   33.5392 C.2     1  <0>         0.2386
     32 N1         13.8960   37.6325   27.0210 N.pl3   1  <0>        -0.3060
     33 N2         15.5781   36.8993   28.4617 N.pl3   1  <0>        -0.2158
     34 N3         11.1020   39.3357   32.4849 N.pl3   1  <0>        -0.3294
     35 N4          7.7913   40.5392   33.3787 N.am    1  <0>        -0.3015
     36 O1          4.5050   40.6190   34.6436 O.co2   1  <0>        -0.5475
     37 O2          5.4855   41.9457   33.1667 O.co2   1  <0>        -0.5475
     38 O3          9.4341   39.6615   34.6152 O.2     1  <0>        -0.2734
     39 O4         12.3303   44.2519   33.8756 O.3     1  <0>        -0.3453
     40 O5         11.3757   45.6766   31.7408 O.3     1  <0>        -0.3375
     41 H1         13.1171   44.4459   35.7904 H       1  <0>         0.0529
     42 H2         11.4064   43.9054   35.7053 H       1  <0>         0.0529
     43 H3         12.7299   42.7690   35.2765 H       1  <0>         0.0529
     44 H4         10.8501   46.0137   25.6768 H       1  <0>         0.0618
     45 H5          8.7277   44.0667   38.0961 H       1  <0>         0.0618
     46 H6          8.9887   47.2846   26.7035 H       1  <0>         0.0618
     47 H7         12.5831   45.0010   27.1291 H       1  <0>         0.0618
     48 H8          8.8111   44.6228   35.6822 H       1  <0>         0.0618
     49 H9          7.8439   41.8788   38.8421 H       1  <0>         0.0618
     50 H10         8.8890   47.5923   29.1531 H       1  <0>         0.0621
     51 H11        12.4867   45.2976   29.5760 H       1  <0>         0.0621
     52 H12         7.9106   43.0125   34.0327 H       1  <0>         0.0621
     53 H13         6.9778   40.2524   37.1784 H       1  <0>         0.0621
     54 H14        12.0020   38.6715   28.0791 H       1  <0>         0.0627
     55 H15        14.8791   37.3120   30.9754 H       1  <0>         0.0627
     56 H16        10.5712   39.5311   29.8798 H       1  <0>         0.0636
     57 H17        13.4151   38.1648   32.7776 H       1  <0>         0.0636
     58 H18         9.1967   41.8992   30.3689 H       1  <0>         0.0622
     59 H19         9.8106   44.2727   30.1028 H       1  <0>         0.0644
     60 H20        11.5473   41.7269   33.9597 H       1  <0>         0.0648
     61 H21        10.9318   47.6445   31.2980 H       1  <0>         0.0615
     62 H22         9.5286   46.5124   31.3468 H       1  <0>         0.0615
     63 H23         6.7528   39.5299   34.8748 H       1  <0>         0.0610
     64 H24         9.4175   39.8790   31.4317 H       1  <0>         0.0645
     65 H25        14.4257   37.3218   26.2318 H       1  <0>         0.1477
     66 H26        13.0031   38.0621   26.8863 H       1  <0>         0.1477
     67 H27        16.1185   36.5840   27.6816 H       1  <0>         0.4359
     68 H28        15.9291   36.7866   29.3913 H       1  <0>         0.4359
     69 H29        10.7400   38.5079   32.9137 H       1  <0>         0.1471
     70 H30         7.4926   40.8583   32.4793 H       1  <0>         0.1497
@<TRIPOS>BOND
     1     1    39    1
     2     2     4   ar
     3     2     5   ar
     4     3     6   ar
     5     3     7   ar
     6     4     8   ar
     7     5     9   ar
     8     6    10   ar
     9     7    11   ar
    10     8    20   ar
    11     9    20   ar
    12    10    21   ar
    13    11    21   ar
    14    12    14   ar
    15    12    22   ar
    16    13    15   ar
    17    13    22   ar
    18    14    23   ar
    19    15    23   ar
    20    16    17   ar
    21    16    24   ar
    22    17    25   ar
    23    18    24   ar
    24    18    26   ar
    25    19    20    1
    26    19    40    1
    27    21    27    1
    28    22    29    1
    29    23    34    1
    30    24    28    1
    31    25    26   ar
    32    25    40    1
    33    26    39    1
    34    27    30    1
    35    27    35    1
    36    28    31    1
    37    28    34    1
    38    29    32    1
    39    29    33    2
    40    30    36    1
    41    30    37    2
    42    31    35   am
    43    31    38    2
    44     1    41    1
    45     1    42    1
    46     1    43    1
    47     2    44    1
    48     3    45    1
    49     4    46    1
    50     5    47    1
    51     6    48    1
    52     7    49    1
    53     8    50    1
    54     9    51    1
    55    10    52    1
    56    11    53    1
    57    12    54    1
    58    13    55    1
    59    14    56    1
    60    15    57    1
    61    16    58    1
    62    17    59    1
    63    18    60    1
    64    19    61    1
    65    19    62    1
    66    27    63    1
    67    28    64    1
    68    32    65    1
    69    32    66    1
    70    33    67    1
    71    33    68    1
    72    34    69    1
    73    35    70    1
@<TRIPOS>SUBSTRUCTURE
     1 <0>         1 TEMP              0 ****  ****    0 ROOT

