
##########                                Name:      413_H1261_1W7X
##########                    Molecular_Weight:             538.603
##########                DOCK_Rotatable_Bonds:                  12
##########                       Formal_Charge:         0.000799671
##########                     HBond_Acceptors:                   9
##########                        HBond_Donors:                   6
##########                         Heavy_Atoms:                  40
##########                            HA_RMSDs:               0.308
##########                            HA_RMSDh:               0.308
##########                            HA_RMSDm:               0.308
##########                          Grid_Score:         -102.444138
##########                     Grid_vdw_energy:          -62.905407
##########                      Grid_es_energy:          -39.538734
##########           Internal_energy_repulsive:           22.640623

@<TRIPOS>MOLECULE
413_H1261_1W7X
 70 73 1 0 0
SMALL
USER_CHARGES


@<TRIPOS>ATOM
      1 C1         12.7252   43.8279   34.9905 C.3     1  <0>         0.0431
      2 C2         10.9359   46.1008   26.7577 C.ar    1  <0>        -0.0617
      3 C3          8.4594   43.1653   37.5774 C.ar    1  <0>        -0.0617
      4 C4          9.8217   46.8071   27.2102 C.ar    1  <0>        -0.0614
      5 C5         11.8311   45.5721   27.6877 C.ar    1  <0>        -0.0614
      6 C6          8.6312   43.4691   36.2275 C.ar    1  <0>        -0.0614
      7 C7          7.8042   41.9902   37.9628 C.ar    1  <0>        -0.0614
      8 C8          9.6094   46.9967   28.5781 C.ar    1  <0>        -0.0564
      9 C9         11.6222   45.7569   29.0547 C.ar    1  <0>        -0.0564
     10 C10         8.1148   42.5984   35.2662 C.ar    1  <0>        -0.0564
     11 C11         7.2989   41.1154   36.9902 C.ar    1  <0>        -0.0564
     12 C12        12.2513   38.5364   29.1298 C.ar    1  <0>        -0.0452
     13 C13        13.8703   37.6941   30.7325 C.ar    1  <0>        -0.0452
     14 C14        11.4941   39.0749   30.1549 C.ar    1  <0>        -0.0400
     15 C15        13.0912   38.2381   31.7552 C.ar    1  <0>        -0.0400
     16 C16         9.5723   42.4355   31.2544 C.ar    1  <0>        -0.0537
     17 C17         9.8312   43.7947   31.1112 C.ar    1  <0>        -0.0288
     18 C18        11.1927   42.3449   33.0490 C.ar    1  <0>        -0.0237
     19 C19        10.2475   46.6695   30.9923 C.3     1  <0>         0.0794
     20 C20        10.5083   46.4615   29.5143 C.ar    1  <0>        -0.0214
     21 C21         7.4458   41.4212   35.6379 C.ar    1  <0>        -0.0217
     22 C22        13.4477   37.8568   29.4057 C.ar    1  <0>         0.0611
     23 C23        11.8918   38.9181   31.4853 C.ar    1  <0>         0.0279
     24 C24        10.2626   41.6937   32.2327 C.ar    1  <0>        -0.0159
     25 C25        10.7646   44.4388   31.9288 C.ar    1  <0>         0.1065
     26 C26        11.4419   43.7056   32.9095 C.ar    1  <0>         0.1060
     27 C27         6.9113   40.4945   34.5964 C.3     1  <0>         0.0879
     28 C28         9.9612   40.2391   32.3842 C.3     1  <0>         0.1231
     29 C29        14.2259   37.2996   28.2554 C.cat   1  <0>         0.2605
     30 C30         5.5671   41.0333   34.2184 C.2     1  <0>         0.0664
     31 C31         9.0800   40.0767   33.5896 C.2     1  <0>         0.2386
     32 N1         13.7171   37.4663   27.0243 N.pl3   1  <0>        -0.3060
     33 N2         15.3876   36.6571   28.4375 N.pl3   1  <0>        -0.2158
     34 N3         11.1751   39.4400   32.5201 N.pl3   1  <0>        -0.3294
     35 N4          7.8297   40.5317   33.4731 N.am    1  <0>        -0.3015
     36 O1          4.6573   40.9861   35.0796 O.co2   1  <0>        -0.5475
     37 O2          5.4262   41.5057   33.0691 O.co2   1  <0>        -0.5475
     38 O3          9.4807   39.5687   34.6328 O.2     1  <0>        -0.2734
     39 O4         12.3725   44.3444   33.6988 O.3     1  <0>        -0.3453
     40 O5         11.0373   45.7878   31.7930 O.3     1  <0>        -0.3375
     41 H1         13.4796   44.4808   35.4536 H       1  <0>         0.0529
     42 H2         11.8296   43.7929   35.6282 H       1  <0>         0.0529
     43 H3         13.1366   42.8138   34.8798 H       1  <0>         0.0529
     44 H4         11.1037   45.9648   25.6995 H       1  <0>         0.0618
     45 H5          8.8346   43.8417   38.3312 H       1  <0>         0.0618
     46 H6          9.1175   47.2107   26.4978 H       1  <0>         0.0618
     47 H7         12.6919   45.0157   27.3471 H       1  <0>         0.0618
     48 H8          9.1561   44.3649   35.9299 H       1  <0>         0.0618
     49 H9          7.6876   41.7567   39.0108 H       1  <0>         0.0618
     50 H10         8.7504   47.5571   28.9165 H       1  <0>         0.0621
     51 H11        12.3286   45.3511   29.7637 H       1  <0>         0.0621
     52 H12         8.2319   42.8343   34.2188 H       1  <0>         0.0621
     53 H13         6.7971   40.2067   37.2881 H       1  <0>         0.0621
     54 H14        11.9184   38.6400   28.1076 H       1  <0>         0.0627
     55 H15        14.7804   37.1587   30.9589 H       1  <0>         0.0627
     56 H16        10.5902   39.6197   29.9254 H       1  <0>         0.0636
     57 H17        13.4186   38.1337   32.7791 H       1  <0>         0.0636
     58 H18         8.8456   41.9515   30.6188 H       1  <0>         0.0622
     59 H19         9.3036   44.3605   30.3575 H       1  <0>         0.0644
     60 H20        11.7264   41.7816   33.8001 H       1  <0>         0.0648
     61 H21        10.4998   47.7078   31.2540 H       1  <0>         0.0615
     62 H22         9.1839   46.4756   31.1952 H       1  <0>         0.0615
     63 H23         6.8154   39.4529   34.9369 H       1  <0>         0.0610
     64 H24         9.4522   39.8760   31.4792 H       1  <0>         0.0645
     65 H25        14.2061   37.1089   26.2286 H       1  <0>         0.1477
     66 H26        12.8491   37.9478   26.9030 H       1  <0>         0.1477
     67 H27        15.8873   36.2945   27.6508 H       1  <0>         0.4359
     68 H28        15.7550   36.5401   29.3603 H       1  <0>         0.4359
     69 H29        10.8930   38.6444   33.0564 H       1  <0>         0.1471
     70 H30         7.5214   40.9040   32.5977 H       1  <0>         0.1497
@<TRIPOS>BOND
     1     1    39    1
     2     2     4   ar
     3     2     5   ar
     4     3     6   ar
     5     3     7   ar
     6     4     8   ar
     7     5     9   ar
     8     6    10   ar
     9     7    11   ar
    10     8    20   ar
    11     9    20   ar
    12    10    21   ar
    13    11    21   ar
    14    12    14   ar
    15    12    22   ar
    16    13    15   ar
    17    13    22   ar
    18    14    23   ar
    19    15    23   ar
    20    16    17   ar
    21    16    24   ar
    22    17    25   ar
    23    18    24   ar
    24    18    26   ar
    25    19    20    1
    26    19    40    1
    27    21    27    1
    28    22    29    1
    29    23    34    1
    30    24    28    1
    31    25    26   ar
    32    25    40    1
    33    26    39    1
    34    27    30    1
    35    27    35    1
    36    28    31    1
    37    28    34    1
    38    29    32    1
    39    29    33    2
    40    30    36    1
    41    30    37    2
    42    31    35   am
    43    31    38    2
    44     1    41    1
    45     1    42    1
    46     1    43    1
    47     2    44    1
    48     3    45    1
    49     4    46    1
    50     5    47    1
    51     6    48    1
    52     7    49    1
    53     8    50    1
    54     9    51    1
    55    10    52    1
    56    11    53    1
    57    12    54    1
    58    13    55    1
    59    14    56    1
    60    15    57    1
    61    16    58    1
    62    17    59    1
    63    18    60    1
    64    19    61    1
    65    19    62    1
    66    27    63    1
    67    28    64    1
    68    32    65    1
    69    32    66    1
    70    33    67    1
    71    33    68    1
    72    34    69    1
    73    35    70    1
@<TRIPOS>SUBSTRUCTURE
     1 <0>         1 TEMP              0 ****  ****    0 ROOT

