
##########                                Name:      413_H1261_1W7X
##########                    Molecular_Weight:             538.603
##########                DOCK_Rotatable_Bonds:                  12
##########                       Formal_Charge:         0.000799671
##########                     HBond_Acceptors:                   9
##########                        HBond_Donors:                   6
##########                         Heavy_Atoms:                  40
##########                            HA_RMSDs:               0.356
##########                            HA_RMSDh:               0.356
##########                            HA_RMSDm:               0.356
##########                          Grid_Score:         -103.181656
##########                     Grid_vdw_energy:          -63.836212
##########                      Grid_es_energy:          -39.345444
##########           Internal_energy_repulsive:           22.253401

@<TRIPOS>MOLECULE
413_H1261_1W7X
 70 73 1 0 0
SMALL
USER_CHARGES


@<TRIPOS>ATOM
      1 C1         12.7098   43.7587   34.9529 C.3     1  <0>         0.0431
      2 C2         10.8298   46.3350   26.7454 C.ar    1  <0>        -0.0617
      3 C3          8.4959   43.2992   37.5966 C.ar    1  <0>        -0.0617
      4 C4          9.7075   47.0028   27.2348 C.ar    1  <0>        -0.0614
      5 C5         11.7367   45.7764   27.6461 C.ar    1  <0>        -0.0614
      6 C6          8.6831   43.5624   36.2402 C.ar    1  <0>        -0.0614
      7 C7          7.8066   42.1531   38.0087 C.ar    1  <0>        -0.0614
      8 C8          9.4985   47.1248   28.6109 C.ar    1  <0>        -0.0564
      9 C9         11.5313   45.8938   29.0210 C.ar    1  <0>        -0.0564
     10 C10         8.1480   42.6810   35.2990 C.ar    1  <0>        -0.0564
     11 C11         7.2825   41.2671   37.0565 C.ar    1  <0>        -0.0564
     12 C12        12.1572   38.6160   29.1004 C.ar    1  <0>        -0.0452
     13 C13        13.8006   37.7790   30.6807 C.ar    1  <0>        -0.0452
     14 C14        11.3985   39.1286   30.1376 C.ar    1  <0>        -0.0400
     15 C15        13.0200   38.2968   31.7158 C.ar    1  <0>        -0.0400
     16 C16         9.5684   42.4310   31.1868 C.ar    1  <0>        -0.0537
     17 C17         9.8320   43.7882   31.0335 C.ar    1  <0>        -0.0288
     18 C18        11.0464   42.3892   33.1020 C.ar    1  <0>        -0.0237
     19 C19        10.1521   46.6941   31.0046 C.3     1  <0>         0.0794
     20 C20        10.4093   46.5596   29.5175 C.ar    1  <0>        -0.0214
     21 C21         7.4449   41.5328   35.6975 C.ar    1  <0>        -0.0217
     22 C22        13.3663   37.9522   29.3591 C.ar    1  <0>         0.0611
     23 C23        11.8079   38.9607   31.4631 C.ar    1  <0>         0.0279
     24 C24        10.1844   41.7148   32.2315 C.ar    1  <0>        -0.0159
     25 C25        10.6971   44.4555   31.9058 C.ar    1  <0>         0.1065
     26 C26        11.2999   43.7480   32.9517 C.ar    1  <0>         0.1060
     27 C27         6.8906   40.5940   34.6776 C.3     1  <0>         0.0879
     28 C28         9.8783   40.2622   32.3919 C.3     1  <0>         0.1231
     29 C29        14.1453   37.4229   28.1962 C.cat   1  <0>         0.2605
     30 C30         5.5380   41.1266   34.3214 C.2     1  <0>         0.0664
     31 C31         9.0165   40.1074   33.6122 C.2     1  <0>         0.2386
     32 N1         13.6253   37.5976   26.9709 N.pl3   1  <0>        -0.3060
     33 N2         15.3184   36.7970   28.3620 N.pl3   1  <0>        -0.2158
     34 N3         11.0902   39.4572   32.5096 N.pl3   1  <0>        -0.3294
     35 N4          7.7856   40.6199   33.5352 N.am    1  <0>        -0.3015
     36 O1          4.5749   40.8113   35.0592 O.co2   1  <0>        -0.5475
     37 O2          5.4431   41.8604   33.3132 O.co2   1  <0>        -0.5475
     38 O3          9.4163   39.5551   34.6331 O.2     1  <0>        -0.2734
     39 O4         12.1644   44.4093   33.7958 O.3     1  <0>        -0.3453
     40 O5         10.9739   45.8027   31.7613 O.3     1  <0>        -0.3375
     41 H1         13.3719   44.4554   35.4879 H       1  <0>         0.0529
     42 H2         11.8911   43.4472   35.6181 H       1  <0>         0.0529
     43 H3         13.2845   42.8747   34.6395 H       1  <0>         0.0529
     44 H4         10.9948   46.2513   25.6813 H       1  <0>         0.0618
     45 H5          8.8856   43.9848   38.3345 H       1  <0>         0.0618
     46 H6          8.9943   47.4289   26.5448 H       1  <0>         0.0618
     47 H7         12.6040   45.2495   27.2765 H       1  <0>         0.0618
     48 H8          9.2340   44.4353   35.9223 H       1  <0>         0.0618
     49 H9          7.6780   41.9507   39.0618 H       1  <0>         0.0618
     50 H10         8.6330   47.6560   28.9785 H       1  <0>         0.0621
     51 H11        12.2467   45.4656   29.7075 H       1  <0>         0.0621
     52 H12         8.2770   42.8859   34.2465 H       1  <0>         0.0621
     53 H13         6.7542   40.3806   37.3752 H       1  <0>         0.0621
     54 H14        11.8156   38.7277   28.0819 H       1  <0>         0.0627
     55 H15        14.7208   37.2554   30.8938 H       1  <0>         0.0627
     56 H16        10.4844   39.6617   29.9215 H       1  <0>         0.0636
     57 H17        13.3562   38.1841   32.7360 H       1  <0>         0.0636
     58 H18         8.8947   41.9290   30.5082 H       1  <0>         0.0622
     59 H19         9.3616   44.3342   30.2292 H       1  <0>         0.0644
     60 H20        11.5231   41.8456   33.9043 H       1  <0>         0.0648
     61 H21        10.3742   47.7271   31.3106 H       1  <0>         0.0615
     62 H22         9.0963   46.4586   31.2044 H       1  <0>         0.0615
     63 H23         6.8034   39.5561   35.0314 H       1  <0>         0.0610
     64 H24         9.3523   39.8994   31.4965 H       1  <0>         0.0645
     65 H25        14.1145   37.2587   26.1673 H       1  <0>         0.1477
     66 H26        12.7489   38.0666   26.8620 H       1  <0>         0.1477
     67 H27        15.8184   36.4530   27.5671 H       1  <0>         0.4359
     68 H28        15.6940   36.6738   29.2806 H       1  <0>         0.4359
     69 H29        10.8053   38.6487   33.0246 H       1  <0>         0.1471
     70 H30         7.4756   41.0282   32.6766 H       1  <0>         0.1497
@<TRIPOS>BOND
     1     1    39    1
     2     2     4   ar
     3     2     5   ar
     4     3     6   ar
     5     3     7   ar
     6     4     8   ar
     7     5     9   ar
     8     6    10   ar
     9     7    11   ar
    10     8    20   ar
    11     9    20   ar
    12    10    21   ar
    13    11    21   ar
    14    12    14   ar
    15    12    22   ar
    16    13    15   ar
    17    13    22   ar
    18    14    23   ar
    19    15    23   ar
    20    16    17   ar
    21    16    24   ar
    22    17    25   ar
    23    18    24   ar
    24    18    26   ar
    25    19    20    1
    26    19    40    1
    27    21    27    1
    28    22    29    1
    29    23    34    1
    30    24    28    1
    31    25    26   ar
    32    25    40    1
    33    26    39    1
    34    27    30    1
    35    27    35    1
    36    28    31    1
    37    28    34    1
    38    29    32    1
    39    29    33    2
    40    30    36    1
    41    30    37    2
    42    31    35   am
    43    31    38    2
    44     1    41    1
    45     1    42    1
    46     1    43    1
    47     2    44    1
    48     3    45    1
    49     4    46    1
    50     5    47    1
    51     6    48    1
    52     7    49    1
    53     8    50    1
    54     9    51    1
    55    10    52    1
    56    11    53    1
    57    12    54    1
    58    13    55    1
    59    14    56    1
    60    15    57    1
    61    16    58    1
    62    17    59    1
    63    18    60    1
    64    19    61    1
    65    19    62    1
    66    27    63    1
    67    28    64    1
    68    32    65    1
    69    32    66    1
    70    33    67    1
    71    33    68    1
    72    34    69    1
    73    35    70    1
@<TRIPOS>SUBSTRUCTURE
     1 <0>         1 TEMP              0 ****  ****    0 ROOT

