
##########                                Name:      413_H1261_1W7X
##########                    Molecular_Weight:             538.603
##########                DOCK_Rotatable_Bonds:                  12
##########                       Formal_Charge:         0.000799671
##########                     HBond_Acceptors:                   9
##########                        HBond_Donors:                   6
##########                         Heavy_Atoms:                  40
##########                            HA_RMSDs:               0.409
##########                            HA_RMSDh:               0.409
##########                            HA_RMSDm:               0.399
##########                          Grid_Score:          -99.122856
##########                     Grid_vdw_energy:          -57.916027
##########                      Grid_es_energy:          -41.206829
##########           Internal_energy_repulsive:           22.226931

@<TRIPOS>MOLECULE
413_H1261_1W7X
 70 73 1 0 0
SMALL
USER_CHARGES


@<TRIPOS>ATOM
      1 C1         13.0716   43.7243   34.7124 C.3     1  <0>         0.0431
      2 C2         10.5514   46.4543   26.7516 C.ar    1  <0>        -0.0617
      3 C3          8.1058   43.5993   37.2486 C.ar    1  <0>        -0.0617
      4 C4          9.6241   47.3194   27.3318 C.ar    1  <0>        -0.0614
      5 C5         11.3723   45.6837   27.5752 C.ar    1  <0>        -0.0614
      6 C6          8.2179   43.8227   35.8769 C.ar    1  <0>        -0.0614
      7 C7          7.6247   42.3771   37.7318 C.ar    1  <0>        -0.0614
      8 C8          9.5257   47.4257   28.7215 C.ar    1  <0>        -0.0564
      9 C9         11.2763   45.7849   28.9634 C.ar    1  <0>        -0.0564
     10 C10         7.8161   42.8202   34.9923 C.ar    1  <0>        -0.0564
     11 C11         7.2344   41.3712   36.8360 C.ar    1  <0>        -0.0564
     12 C12        12.4970   38.8525   29.1091 C.ar    1  <0>        -0.0452
     13 C13        13.7264   37.5070   30.7144 C.ar    1  <0>        -0.0452
     14 C14        11.7343   39.3971   30.1269 C.ar    1  <0>        -0.0400
     15 C15        12.9437   38.0616   31.7286 C.ar    1  <0>        -0.0400
     16 C16         9.6498   42.4991   31.1646 C.ar    1  <0>        -0.0537
     17 C17         9.9111   43.8576   31.0196 C.ar    1  <0>        -0.0288
     18 C18        11.1863   42.4319   33.0325 C.ar    1  <0>        -0.0237
     19 C19        10.2129   46.7717   31.0544 C.3     1  <0>         0.0794
     20 C20        10.3493   46.6477   29.5505 C.ar    1  <0>        -0.0214
     21 C21         7.3215   41.5930   35.4623 C.ar    1  <0>        -0.0217
     22 C22        13.5047   37.9179   29.3925 C.ar    1  <0>         0.0611
     23 C23        11.9324   38.9964   31.4509 C.ar    1  <0>         0.0279
     24 C24        10.2966   41.7694   32.1810 C.ar    1  <0>        -0.0159
     25 C25        10.8040   44.5131   31.8727 C.ar    1  <0>         0.1065
     26 C26        11.4375   43.7920   32.8909 C.ar    1  <0>         0.1060
     27 C27         6.9087   40.5268   34.5021 C.3     1  <0>         0.0879
     28 C28         9.9928   40.3153   32.3332 C.3     1  <0>         0.1231
     29 C29        14.2995   37.3668   28.2506 C.cat   1  <0>         0.2605
     30 C30         5.5222   40.8826   34.0648 C.2     1  <0>         0.0664
     31 C31         9.1027   40.1562   33.5324 C.2     1  <0>         0.2386
     32 N1         13.9829   37.7868   27.0155 N.pl3   1  <0>        -0.3060
     33 N2         15.2916   36.4871   28.4440 N.pl3   1  <0>        -0.2158
     34 N3         11.2050   39.5155   32.4796 N.pl3   1  <0>        -0.3294
     35 N4          7.8392   40.5645   33.3888 N.am    1  <0>        -0.3015
     36 O1          4.5924   40.7250   34.8907 O.co2   1  <0>        -0.5475
     37 O2          5.3675   41.3224   32.9044 O.co2   1  <0>        -0.5475
     38 O3          9.5074   39.6913   34.5941 O.2     1  <0>        -0.2734
     39 O4         12.3290   44.4418   33.7157 O.3     1  <0>        -0.3453
     40 O5         11.0787   45.8615   31.7359 O.3     1  <0>        -0.3375
     41 H1         13.7221   44.4228   35.2591 H       1  <0>         0.0529
     42 H2         12.3739   43.2464   35.4158 H       1  <0>         0.0529
     43 H3         13.6878   42.9538   34.2262 H       1  <0>         0.0529
     44 H4         10.6330   46.3817   25.6772 H       1  <0>         0.0618
     45 H5          8.3922   44.3750   37.9433 H       1  <0>         0.0618
     46 H6          8.9769   47.9117   26.7020 H       1  <0>         0.0618
     47 H7         12.0872   45.0041   27.1351 H       1  <0>         0.0618
     48 H8          8.6097   44.7575   35.5042 H       1  <0>         0.0618
     49 H9          7.5539   42.2083   38.7961 H       1  <0>         0.0618
     50 H10         8.8133   48.1091   29.1596 H       1  <0>         0.0621
     51 H11        11.9251   45.1902   29.5894 H       1  <0>         0.0621
     52 H12         7.8870   42.9915   33.9283 H       1  <0>         0.0621
     53 H13         6.8671   40.4268   37.2094 H       1  <0>         0.0621
     54 H14        12.3150   39.1495   28.0868 H       1  <0>         0.0627
     55 H15        14.4876   36.7759   30.9436 H       1  <0>         0.0627
     56 H16        10.9813   40.1364   29.8967 H       1  <0>         0.0636
     57 H17        13.1200   37.7647   32.7520 H       1  <0>         0.0636
     58 H18         8.9545   42.0063   30.5012 H       1  <0>         0.0622
     59 H19         9.4171   44.4141   30.2368 H       1  <0>         0.0644
     60 H20        11.6865   41.8779   33.8131 H       1  <0>         0.0648
     61 H21        10.4742   47.7984   31.3504 H       1  <0>         0.0615
     62 H22         9.1729   46.5495   31.3355 H       1  <0>         0.0615
     63 H23         6.9177   39.5147   34.9328 H       1  <0>         0.0610
     64 H24         9.4901   39.9509   31.4253 H       1  <0>         0.0645
     65 H25        14.4898   37.4427   26.2252 H       1  <0>         0.1477
     66 H26        13.2401   38.4437   26.8858 H       1  <0>         0.1477
     67 H27        15.8068   36.1347   27.6627 H       1  <0>         0.4359
     68 H28        15.5167   36.1828   29.3696 H       1  <0>         0.4359
     69 H29        10.9170   38.7185   33.0106 H       1  <0>         0.1471
     70 H30         7.5293   40.9016   32.4999 H       1  <0>         0.1497
@<TRIPOS>BOND
     1     1    39    1
     2     2     4   ar
     3     2     5   ar
     4     3     6   ar
     5     3     7   ar
     6     4     8   ar
     7     5     9   ar
     8     6    10   ar
     9     7    11   ar
    10     8    20   ar
    11     9    20   ar
    12    10    21   ar
    13    11    21   ar
    14    12    14   ar
    15    12    22   ar
    16    13    15   ar
    17    13    22   ar
    18    14    23   ar
    19    15    23   ar
    20    16    17   ar
    21    16    24   ar
    22    17    25   ar
    23    18    24   ar
    24    18    26   ar
    25    19    20    1
    26    19    40    1
    27    21    27    1
    28    22    29    1
    29    23    34    1
    30    24    28    1
    31    25    26   ar
    32    25    40    1
    33    26    39    1
    34    27    30    1
    35    27    35    1
    36    28    31    1
    37    28    34    1
    38    29    32    1
    39    29    33    2
    40    30    36    1
    41    30    37    2
    42    31    35   am
    43    31    38    2
    44     1    41    1
    45     1    42    1
    46     1    43    1
    47     2    44    1
    48     3    45    1
    49     4    46    1
    50     5    47    1
    51     6    48    1
    52     7    49    1
    53     8    50    1
    54     9    51    1
    55    10    52    1
    56    11    53    1
    57    12    54    1
    58    13    55    1
    59    14    56    1
    60    15    57    1
    61    16    58    1
    62    17    59    1
    63    18    60    1
    64    19    61    1
    65    19    62    1
    66    27    63    1
    67    28    64    1
    68    32    65    1
    69    32    66    1
    70    33    67    1
    71    33    68    1
    72    34    69    1
    73    35    70    1
@<TRIPOS>SUBSTRUCTURE
     1 <0>         1 TEMP              0 ****  ****    0 ROOT

