
##########                                Name:      413_H1261_1W7X
##########                    Molecular_Weight:             538.603
##########                DOCK_Rotatable_Bonds:                  12
##########                       Formal_Charge:         0.000799671
##########                     HBond_Acceptors:                   9
##########                        HBond_Donors:                   6
##########                         Heavy_Atoms:                  40
##########                            HA_RMSDs:               0.363
##########                            HA_RMSDh:               0.363
##########                            HA_RMSDm:               0.363
##########                          Grid_Score:         -100.405060
##########                     Grid_vdw_energy:          -64.161797
##########                      Grid_es_energy:          -36.243259
##########           Internal_energy_repulsive:           20.336658

@<TRIPOS>MOLECULE
413_H1261_1W7X
 70 73 1 0 0
SMALL
USER_CHARGES


@<TRIPOS>ATOM
      1 C1         12.6208   43.8976   35.1452 C.3     1  <0>         0.0431
      2 C2         10.9485   46.3446   26.7539 C.ar    1  <0>        -0.0617
      3 C3          8.4308   43.5243   37.4097 C.ar    1  <0>        -0.0617
      4 C4          9.9556   47.1260   27.3444 C.ar    1  <0>        -0.0614
      5 C5         11.8464   45.6544   27.5683 C.ar    1  <0>        -0.0614
      6 C6          8.5165   43.7907   36.0438 C.ar    1  <0>        -0.0614
      7 C7          7.8495   42.3358   37.8661 C.ar    1  <0>        -0.0614
      8 C8          9.8673   47.2295   28.7349 C.ar    1  <0>        -0.0564
      9 C9         11.7610   45.7528   28.9573 C.ar    1  <0>        -0.0564
     10 C10         7.9881   42.8679   35.1392 C.ar    1  <0>        -0.0564
     11 C11         7.3318   41.4091   36.9498 C.ar    1  <0>        -0.0564
     12 C12        12.3666   38.7093   29.2156 C.ar    1  <0>        -0.0452
     13 C13        13.9355   37.8655   30.8666 C.ar    1  <0>        -0.0452
     14 C14        11.5208   39.1452   30.2200 C.ar    1  <0>        -0.0400
     15 C15        13.0677   38.3058   31.8676 C.ar    1  <0>        -0.0400
     16 C16         9.7436   42.4332   31.2180 C.ar    1  <0>        -0.0537
     17 C17        10.1168   43.7624   31.0483 C.ar    1  <0>        -0.0288
     18 C18        11.2646   42.2750   33.0931 C.ar    1  <0>        -0.0237
     19 C19        10.6425   46.6502   31.0600 C.3     1  <0>         0.0794
     20 C20        10.7687   46.5320   29.5547 C.ar    1  <0>        -0.0214
     21 C21         7.3924   41.6763   35.5828 C.ar    1  <0>        -0.0217
     22 C22        13.5824   38.0814   29.5272 C.ar    1  <0>         0.0611
     23 C23        11.8486   38.9335   31.5619 C.ar    1  <0>         0.0279
     24 C24        10.3252   41.6722   32.2507 C.ar    1  <0>        -0.0159
     25 C25        11.0588   44.3580   31.8924 C.ar    1  <0>         0.1065
     26 C26        11.6280   43.6067   32.9266 C.ar    1  <0>         0.1060
     27 C27         6.8441   40.6943   34.6009 C.3     1  <0>         0.0879
     28 C28         9.9016   40.2515   32.4293 C.3     1  <0>         0.1231
     29 C29        14.4575   37.6353   28.3982 C.cat   1  <0>         0.2605
     30 C30         5.5123   41.2332   34.1814 C.2     1  <0>         0.0664
     31 C31         9.0139   40.1865   33.6391 C.2     1  <0>         0.2386
     32 N1         14.0126   37.8449   27.1491 N.pl3   1  <0>        -0.3060
     33 N2         15.6420   37.0478   28.6163 N.pl3   1  <0>        -0.2158
     34 N3         11.0436   39.3545   32.5775 N.pl3   1  <0>        -0.3294
     35 N4          7.7677   40.6403   33.4825 N.am    1  <0>        -0.3015
     36 O1          4.5219   40.9641   34.9013 O.co2   1  <0>        -0.5475
     37 O2          5.4606   41.9261   33.1416 O.co2   1  <0>        -0.5475
     38 O3          9.4062   39.7554   34.7195 O.2     1  <0>        -0.2734
     39 O4         12.5682   44.1963   33.7425 O.3     1  <0>        -0.3453
     40 O5         11.4446   45.6762   31.7312 O.3     1  <0>        -0.3375
     41 H1         13.4371   44.4685   35.6118 H       1  <0>         0.0529
     42 H2         11.6653   44.1739   35.6149 H       1  <0>         0.0529
     43 H3         12.8003   42.8213   35.2843 H       1  <0>         0.0529
     44 H4         11.0214   46.2747   25.6787 H       1  <0>         0.0618
     45 H5          8.8158   44.2403   38.1207 H       1  <0>         0.0618
     46 H6          9.2493   47.6552   26.7219 H       1  <0>         0.0618
     47 H7         12.6130   45.0394   27.1204 H       1  <0>         0.0618
     48 H8          8.9849   44.6976   35.6906 H       1  <0>         0.0618
     49 H9          7.7996   42.1321   38.9255 H       1  <0>         0.0618
     50 H10         9.1028   47.8484   29.1808 H       1  <0>         0.0621
     51 H11        12.4689   45.2214   29.5761 H       1  <0>         0.0621
     52 H12         8.0384   43.0741   34.0803 H       1  <0>         0.0621
     53 H13         6.8870   40.4902   37.3023 H       1  <0>         0.0621
     54 H14        12.0886   38.8536   28.1821 H       1  <0>         0.0627
     55 H15        14.8605   37.3684   31.1191 H       1  <0>         0.0627
     56 H16        10.6017   39.6521   29.9654 H       1  <0>         0.0636
     57 H17        13.3403   38.1602   32.9025 H       1  <0>         0.0636
     58 H18         9.0115   41.9869   30.5613 H       1  <0>         0.0622
     59 H19         9.6724   44.3426   30.2531 H       1  <0>         0.0644
     60 H20        11.7153   41.6967   33.8860 H       1  <0>         0.0648
     61 H21        10.9737   47.6537   31.3656 H       1  <0>         0.0615
     62 H22         9.5901   46.4969   31.3406 H       1  <0>         0.0615
     63 H23         6.7263   39.6792   35.0079 H       1  <0>         0.0610
     64 H24         9.3605   39.9168   31.5321 H       1  <0>         0.0645
     65 H25        14.5672   37.5616   26.3667 H       1  <0>         0.1477
     66 H26        13.1266   38.2844   27.0011 H       1  <0>         0.1477
     67 H27        16.2069   36.7594   27.8432 H       1  <0>         0.4359
     68 H28        15.9610   36.8978   29.5521 H       1  <0>         0.4359
     69 H29        10.6550   38.5138   32.9547 H       1  <0>         0.1471
     70 H30         7.4660   40.9480   32.5802 H       1  <0>         0.1497
@<TRIPOS>BOND
     1     1    39    1
     2     2     4   ar
     3     2     5   ar
     4     3     6   ar
     5     3     7   ar
     6     4     8   ar
     7     5     9   ar
     8     6    10   ar
     9     7    11   ar
    10     8    20   ar
    11     9    20   ar
    12    10    21   ar
    13    11    21   ar
    14    12    14   ar
    15    12    22   ar
    16    13    15   ar
    17    13    22   ar
    18    14    23   ar
    19    15    23   ar
    20    16    17   ar
    21    16    24   ar
    22    17    25   ar
    23    18    24   ar
    24    18    26   ar
    25    19    20    1
    26    19    40    1
    27    21    27    1
    28    22    29    1
    29    23    34    1
    30    24    28    1
    31    25    26   ar
    32    25    40    1
    33    26    39    1
    34    27    30    1
    35    27    35    1
    36    28    31    1
    37    28    34    1
    38    29    32    1
    39    29    33    2
    40    30    36    1
    41    30    37    2
    42    31    35   am
    43    31    38    2
    44     1    41    1
    45     1    42    1
    46     1    43    1
    47     2    44    1
    48     3    45    1
    49     4    46    1
    50     5    47    1
    51     6    48    1
    52     7    49    1
    53     8    50    1
    54     9    51    1
    55    10    52    1
    56    11    53    1
    57    12    54    1
    58    13    55    1
    59    14    56    1
    60    15    57    1
    61    16    58    1
    62    17    59    1
    63    18    60    1
    64    19    61    1
    65    19    62    1
    66    27    63    1
    67    28    64    1
    68    32    65    1
    69    32    66    1
    70    33    67    1
    71    33    68    1
    72    34    69    1
    73    35    70    1
@<TRIPOS>SUBSTRUCTURE
     1 <0>         1 TEMP              0 ****  ****    0 ROOT

