
##########                                Name:      413_H1261_1W7X
##########                    Molecular_Weight:             538.603
##########                DOCK_Rotatable_Bonds:                  12
##########                       Formal_Charge:         0.000799671
##########                     HBond_Acceptors:                   9
##########                        HBond_Donors:                   6
##########                         Heavy_Atoms:                  40
##########                            HA_RMSDs:               0.225
##########                            HA_RMSDh:               0.225
##########                            HA_RMSDm:               0.225
##########                          Grid_Score:         -102.738464
##########                     Grid_vdw_energy:          -63.030327
##########                      Grid_es_energy:          -39.708141
##########           Internal_energy_repulsive:           26.124811

@<TRIPOS>MOLECULE
413_H1261_1W7X
 70 73 1 0 0
SMALL
USER_CHARGES


@<TRIPOS>ATOM
      1 C1         12.6822   43.8458   34.9163 C.3     1  <0>         0.0431
      2 C2         10.8457   46.2327   26.5384 C.ar    1  <0>        -0.0617
      3 C3          8.4792   43.3595   37.3250 C.ar    1  <0>        -0.0617
      4 C4          9.8331   47.0445   27.0491 C.ar    1  <0>        -0.0614
      5 C5         11.6832   45.5513   27.4216 C.ar    1  <0>        -0.0614
      6 C6          8.7176   43.5435   35.9635 C.ar    1  <0>        -0.0614
      7 C7          7.7933   42.2272   37.7789 C.ar    1  <0>        -0.0614
      8 C8          9.6659   47.1868   28.4289 C.ar    1  <0>        -0.0564
      9 C9         11.5188   45.6885   28.8003 C.ar    1  <0>        -0.0564
     10 C10         8.2368   42.5962   35.0577 C.ar    1  <0>        -0.0564
     11 C11         7.3241   41.2749   36.8627 C.ar    1  <0>        -0.0564
     12 C12        12.4293   38.6860   28.9942 C.ar    1  <0>        -0.0452
     13 C13        14.0053   37.7528   30.5892 C.ar    1  <0>        -0.0452
     14 C14        11.6566   39.1861   30.0272 C.ar    1  <0>        -0.0400
     15 C15        13.2108   38.2586   31.6198 C.ar    1  <0>        -0.0400
     16 C16         9.8615   42.3595   30.9620 C.ar    1  <0>        -0.0537
     17 C17        10.1170   43.7155   30.7865 C.ar    1  <0>        -0.0288
     18 C18        11.1219   42.4182   33.0266 C.ar    1  <0>        -0.0237
     19 C19        10.2950   46.6589   30.8097 C.3     1  <0>         0.0794
     20 C20        10.5064   46.4982   29.3180 C.ar    1  <0>        -0.0214
     21 C21         7.5377   41.4607   35.4976 C.ar    1  <0>        -0.0217
     22 C22        13.6123   37.9807   29.2630 C.ar    1  <0>         0.0611
     23 C23        12.0246   38.9641   31.3569 C.ar    1  <0>         0.0279
     24 C24        10.3719   41.6947   32.0941 C.ar    1  <0>        -0.0159
     25 C25        10.8701   44.4321   31.7213 C.ar    1  <0>         0.1065
     26 C26        11.3671   43.7758   32.8528 C.ar    1  <0>         0.1060
     27 C27         7.0420   40.4510   34.5159 C.3     1  <0>         0.0879
     28 C28        10.0750   40.2426   32.2757 C.3     1  <0>         0.1231
     29 C29        14.4084   37.4675   28.1044 C.cat   1  <0>         0.2605
     30 C30         5.6659   40.8950   34.1296 C.2     1  <0>         0.0664
     31 C31         9.2190   40.0997   33.5015 C.2     1  <0>         0.2386
     32 N1         13.9273   37.6961   26.8722 N.pl3   1  <0>        -0.3060
     33 N2         15.5591   36.8038   28.2806 N.pl3   1  <0>        -0.2158
     34 N3         11.2921   39.4465   32.3997 N.pl3   1  <0>        -0.3294
     35 N4          7.9434   40.4759   33.3785 N.am    1  <0>        -0.3015
     36 O1          4.8116   41.0035   35.0406 O.co2   1  <0>        -0.5475
     37 O2          5.4450   41.1391   32.9232 O.co2   1  <0>        -0.5475
     38 O3          9.6605   39.6755   34.5655 O.2     1  <0>        -0.2734
     39 O4         12.1228   44.4854   33.7598 O.3     1  <0>        -0.3453
     40 O5         11.1379   45.7787   31.5563 O.3     1  <0>        -0.3375
     41 H1         13.2462   44.5829   35.5067 H       1  <0>         0.0529
     42 H2         11.8722   43.4263   35.5309 H       1  <0>         0.0529
     43 H3         13.3571   43.0378   34.5977 H       1  <0>         0.0529
     44 H4         10.9798   46.1328   25.4714 H       1  <0>         0.0618
     45 H5          8.8264   44.0962   38.0344 H       1  <0>         0.0618
     46 H6          9.1731   47.5673   26.3728 H       1  <0>         0.0618
     47 H7         12.4643   44.9131   27.0356 H       1  <0>         0.0618
     48 H8          9.2661   44.4061   35.6149 H       1  <0>         0.0618
     49 H9          7.6251   42.0867   38.8364 H       1  <0>         0.0618
     50 H10         8.8871   47.8290   28.8130 H       1  <0>         0.0621
     51 H11        12.1807   45.1634   29.4730 H       1  <0>         0.0621
     52 H12         8.4055   42.7392   34.0006 H       1  <0>         0.0621
     53 H13         6.7985   40.3992   37.2139 H       1  <0>         0.0621
     54 H14        12.1190   38.8401   27.9713 H       1  <0>         0.0627
     55 H15        14.9047   37.1970   30.8094 H       1  <0>         0.0627
     56 H16        10.7636   39.7512   29.8046 H       1  <0>         0.0636
     57 H17        13.5156   38.1038   32.6443 H       1  <0>         0.0636
     58 H18         9.2747   41.8190   30.2341 H       1  <0>         0.0622
     59 H19         9.7280   44.2220   29.9155 H       1  <0>         0.0644
     60 H20        11.5173   41.9142   33.8961 H       1  <0>         0.0648
     61 H21        10.5283   47.6965   31.0910 H       1  <0>         0.0615
     62 H22         9.2454   46.4294   31.0457 H       1  <0>         0.0615
     63 H23         7.0073   39.4260   34.9136 H       1  <0>         0.0610
     64 H24         9.5477   39.8644   31.3875 H       1  <0>         0.0645
     65 H25        14.4289   37.3697   26.0711 H       1  <0>         0.1477
     66 H26        13.0672   38.1927   26.7555 H       1  <0>         0.1477
     67 H27        16.0711   36.4718   27.4885 H       1  <0>         0.4359
     68 H28        15.9058   36.6406   29.2043 H       1  <0>         0.4359
     69 H29        11.0085   38.6317   32.9054 H       1  <0>         0.1471
     70 H30         7.6038   40.7796   32.4883 H       1  <0>         0.1497
@<TRIPOS>BOND
     1     1    39    1
     2     2     4   ar
     3     2     5   ar
     4     3     6   ar
     5     3     7   ar
     6     4     8   ar
     7     5     9   ar
     8     6    10   ar
     9     7    11   ar
    10     8    20   ar
    11     9    20   ar
    12    10    21   ar
    13    11    21   ar
    14    12    14   ar
    15    12    22   ar
    16    13    15   ar
    17    13    22   ar
    18    14    23   ar
    19    15    23   ar
    20    16    17   ar
    21    16    24   ar
    22    17    25   ar
    23    18    24   ar
    24    18    26   ar
    25    19    20    1
    26    19    40    1
    27    21    27    1
    28    22    29    1
    29    23    34    1
    30    24    28    1
    31    25    26   ar
    32    25    40    1
    33    26    39    1
    34    27    30    1
    35    27    35    1
    36    28    31    1
    37    28    34    1
    38    29    32    1
    39    29    33    2
    40    30    36    1
    41    30    37    2
    42    31    35   am
    43    31    38    2
    44     1    41    1
    45     1    42    1
    46     1    43    1
    47     2    44    1
    48     3    45    1
    49     4    46    1
    50     5    47    1
    51     6    48    1
    52     7    49    1
    53     8    50    1
    54     9    51    1
    55    10    52    1
    56    11    53    1
    57    12    54    1
    58    13    55    1
    59    14    56    1
    60    15    57    1
    61    16    58    1
    62    17    59    1
    63    18    60    1
    64    19    61    1
    65    19    62    1
    66    27    63    1
    67    28    64    1
    68    32    65    1
    69    32    66    1
    70    33    67    1
    71    33    68    1
    72    34    69    1
    73    35    70    1
@<TRIPOS>SUBSTRUCTURE
     1 <0>         1 TEMP              0 ****  ****    0 ROOT

