
##########                                Name:      413_H1261_1W7X
##########                    Molecular_Weight:             538.603
##########                DOCK_Rotatable_Bonds:                  12
##########                       Formal_Charge:         0.000799671
##########                     HBond_Acceptors:                   9
##########                        HBond_Donors:                   6
##########                         Heavy_Atoms:                  40
##########                            HA_RMSDs:               0.667
##########                            HA_RMSDh:               0.667
##########                            HA_RMSDm:               0.572
##########                          Grid_Score:          -98.168076
##########                     Grid_vdw_energy:          -57.468552
##########                      Grid_es_energy:          -40.699520
##########           Internal_energy_repulsive:           21.257183

@<TRIPOS>MOLECULE
413_H1261_1W7X
 70 73 1 0 0
SMALL
USER_CHARGES


@<TRIPOS>ATOM
      1 C1         12.5262   43.9875   34.5956 C.3     1  <0>         0.0431
      2 C2          9.6951   47.0519   26.4249 C.ar    1  <0>        -0.0617
      3 C3          8.1746   43.9570   36.9044 C.ar    1  <0>        -0.0617
      4 C4          9.1021   47.9751   27.2858 C.ar    1  <0>        -0.0614
      5 C5         10.3896   45.9680   26.9620 C.ar    1  <0>        -0.0614
      6 C6          8.1233   44.0835   35.5168 C.ar    1  <0>        -0.0614
      7 C7          7.8159   42.7530   37.5211 C.ar    1  <0>        -0.0614
      8 C8          9.2126   47.8264   28.6706 C.ar    1  <0>        -0.0564
      9 C9         10.5008   45.8141   28.3442 C.ar    1  <0>        -0.0564
     10 C10         7.6816   43.0011   34.7537 C.ar    1  <0>        -0.0564
     11 C11         7.3845   41.6670   36.7459 C.ar    1  <0>        -0.0564
     12 C12        12.4052   38.6934   29.1200 C.ar    1  <0>        -0.0452
     13 C13        13.7087   37.4826   30.7734 C.ar    1  <0>        -0.0452
     14 C14        11.6065   39.2250   30.1168 C.ar    1  <0>        -0.0400
     15 C15        12.8895   38.0228   31.7663 C.ar    1  <0>        -0.0400
     16 C16         9.6078   42.2157   30.8321 C.ar    1  <0>        -0.0537
     17 C17         9.8824   43.5478   30.5406 C.ar    1  <0>        -0.0288
     18 C18        10.9980   42.3901   32.8047 C.ar    1  <0>        -0.0237
     19 C19        10.0016   46.5881   30.7167 C.3     1  <0>         0.0794
     20 C20         9.9084   46.7336   29.2114 C.ar    1  <0>        -0.0214
     21 C21         7.3083   41.7906   35.3592 C.ar    1  <0>        -0.0217
     22 C22        13.4673   37.8329   29.4376 C.ar    1  <0>         0.0611
     23 C23        11.8237   38.8834   31.4544 C.ar    1  <0>         0.0279
     24 C24        10.1739   41.6214   31.9767 C.ar    1  <0>        -0.0159
     25 C25        10.7096   44.3097   31.3713 C.ar    1  <0>         0.1065
     26 C26        11.2624   43.7242   32.5156 C.ar    1  <0>         0.1060
     27 C27         6.8507   40.6387   34.5270 C.3     1  <0>         0.0879
     28 C28         9.8562   40.1951   32.2839 C.3     1  <0>         0.1231
     29 C29        14.2989   37.2925   28.3170 C.cat   1  <0>         0.2605
     30 C30         5.4524   40.9663   34.1059 C.2     1  <0>         0.0664
     31 C31         9.0118   40.1709   33.5257 C.2     1  <0>         0.2386
     32 N1         13.9618   37.6490   27.0674 N.pl3   1  <0>        -0.3060
     33 N2         15.3423   36.4826   28.5427 N.pl3   1  <0>        -0.2158
     34 N3         11.0619   39.3922   32.4631 N.pl3   1  <0>        -0.3294
     35 N4          7.7398   40.5524   33.3830 N.am    1  <0>        -0.3015
     36 O1          4.5809   41.0601   35.0022 O.co2   1  <0>        -0.5475
     37 O2          5.2307   41.1344   32.8866 O.co2   1  <0>        -0.5475
     38 O3          9.4594   39.8346   34.6182 O.2     1  <0>        -0.2734
     39 O4         12.0902   44.4770   33.3189 O.3     1  <0>        -0.3453
     40 O5         10.9970   45.6329   31.0903 O.3     1  <0>        -0.3375
     41 H1         13.1755   44.7358   35.0735 H       1  <0>         0.0529
     42 H2         11.6507   43.8003   35.2346 H       1  <0>         0.0529
     43 H3         13.0864   43.0511   34.4572 H       1  <0>         0.0529
     44 H4          9.6175   47.1749   25.3547 H       1  <0>         0.0618
     45 H5          8.4933   44.7942   37.5077 H       1  <0>         0.0618
     46 H6          8.5532   48.8114   26.8789 H       1  <0>         0.0618
     47 H7         10.8444   45.2428   26.3034 H       1  <0>         0.0618
     48 H8          8.4211   45.0054   35.0392 H       1  <0>         0.0618
     49 H9          7.8715   42.6601   38.5956 H       1  <0>         0.0618
     50 H10         8.7609   48.5550   29.3276 H       1  <0>         0.0621
     51 H11        11.0502   44.9759   28.7469 H       1  <0>         0.0621
     52 H12         7.6260   43.0966   33.6794 H       1  <0>         0.0621
     53 H13         7.1118   40.7367   37.2220 H       1  <0>         0.0621
     54 H14        12.2093   38.9429   28.0877 H       1  <0>         0.0627
     55 H15        14.5125   36.8081   31.0292 H       1  <0>         0.0627
     56 H16        10.8105   39.9081   29.8597 H       1  <0>         0.0636
     57 H17        13.0798   37.7730   32.7997 H       1  <0>         0.0636
     58 H18         8.9637   41.6399   30.1840 H       1  <0>         0.0622
     59 H19         9.4505   44.0000   29.6601 H       1  <0>         0.0644
     60 H20        11.4363   41.9401   33.6832 H       1  <0>         0.0648
     61 H21        10.2655   47.5635   31.1514 H       1  <0>         0.0615
     62 H22         9.0270   46.2532   31.1015 H       1  <0>         0.0615
     63 H23         6.8664   39.6749   35.0570 H       1  <0>         0.0610
     64 H24         9.3131   39.7519   31.4363 H       1  <0>         0.0645
     65 H25        14.4919   37.3095   26.2905 H       1  <0>         0.1477
     66 H26        13.1806   38.2541   26.9137 H       1  <0>         0.1477
     67 H27        15.8813   36.1358   27.7751 H       1  <0>         0.4359
     68 H28        15.5821   36.2251   29.4788 H       1  <0>         0.4359
     69 H29        10.7552   38.5899   32.9752 H       1  <0>         0.1471
     70 H30         7.3945   40.7823   32.4731 H       1  <0>         0.1497
@<TRIPOS>BOND
     1     1    39    1
     2     2     4   ar
     3     2     5   ar
     4     3     6   ar
     5     3     7   ar
     6     4     8   ar
     7     5     9   ar
     8     6    10   ar
     9     7    11   ar
    10     8    20   ar
    11     9    20   ar
    12    10    21   ar
    13    11    21   ar
    14    12    14   ar
    15    12    22   ar
    16    13    15   ar
    17    13    22   ar
    18    14    23   ar
    19    15    23   ar
    20    16    17   ar
    21    16    24   ar
    22    17    25   ar
    23    18    24   ar
    24    18    26   ar
    25    19    20    1
    26    19    40    1
    27    21    27    1
    28    22    29    1
    29    23    34    1
    30    24    28    1
    31    25    26   ar
    32    25    40    1
    33    26    39    1
    34    27    30    1
    35    27    35    1
    36    28    31    1
    37    28    34    1
    38    29    32    1
    39    29    33    2
    40    30    36    1
    41    30    37    2
    42    31    35   am
    43    31    38    2
    44     1    41    1
    45     1    42    1
    46     1    43    1
    47     2    44    1
    48     3    45    1
    49     4    46    1
    50     5    47    1
    51     6    48    1
    52     7    49    1
    53     8    50    1
    54     9    51    1
    55    10    52    1
    56    11    53    1
    57    12    54    1
    58    13    55    1
    59    14    56    1
    60    15    57    1
    61    16    58    1
    62    17    59    1
    63    18    60    1
    64    19    61    1
    65    19    62    1
    66    27    63    1
    67    28    64    1
    68    32    65    1
    69    32    66    1
    70    33    67    1
    71    33    68    1
    72    34    69    1
    73    35    70    1
@<TRIPOS>SUBSTRUCTURE
     1 <0>         1 TEMP              0 ****  ****    0 ROOT

