
##########                                Name:        CQW_999_3CQW
##########                    Molecular_Weight:             274.712
##########                DOCK_Rotatable_Bonds:                   1
##########                       Formal_Charge:         9.99719e-05
##########                     HBond_Acceptors:                   7
##########                        HBond_Donors:                   2
##########                         Heavy_Atoms:                  19
##########                            HA_RMSDs:               6.013
##########                            HA_RMSDh:               6.010
##########                            HA_RMSDm:               5.050
##########                          Grid_Score:          -37.932934
##########                     Grid_vdw_energy:          -37.242580
##########                      Grid_es_energy:           -0.690353
##########           Internal_energy_repulsive:            4.533556

@<TRIPOS>MOLECULE
CQW_999_3CQW
 30 33 1 0 0
SMALL
USER_CHARGES


@<TRIPOS>ATOM
      1 C1          7.7343    3.3674   17.9035 C.2     1  <0>         0.0142
      2 C2         11.8117   -0.9186   23.5019 C.2     1  <0>         0.0856
      3 C3         11.8489    4.5667   19.3678 C.ar    1  <0>         0.1202
      4 C4         13.4778    0.6041   20.6109 C.3     1  <0>         0.0070
      5 C5         12.7881    0.5605   19.2286 C.3     1  <0>         0.0194
      6 C6         10.6270    0.1115   20.1896 C.3     1  <0>         0.0533
      7 C7          8.5235    2.3110   18.1632 C.2     1  <0>         0.0685
      8 C8         12.6097    0.0935   21.7207 C.2     1  <0>         0.0627
      9 C9         11.3099   -0.1647   21.5070 C.2     1  <0>         0.0478
     10 C10         9.8105    2.8486   18.6657 C.ar    1  <0>         0.0744
     11 C11         9.6785    4.2530   18.5890 C.ar    1  <0>         0.1362
     12 C12        11.0473    2.3715   19.1520 C.ar    1  <0>         0.1353
     13 N1          8.3965    4.5425   18.1439 N.pl3   1  <0>        -0.3037
     14 N2         10.8162   -0.7925   22.6296 N.pl3   1  <0>        -0.3061
     15 N3         12.9360   -0.4049   22.9637 N.2     1  <0>        -0.2430
     16 N4         10.6832    5.0623   18.9315 N.ar    1  <0>        -0.2199
     17 N5         12.0176    3.2480   19.4398 N.ar    1  <0>        -0.2200
     18 N6         11.3743    1.0038   19.2726 N.pl3   1  <0>        -0.3086
     19 Cl1         8.0416    0.6524   17.9364 Cl      1  <0>        -0.0814
     20 H1          6.7152    3.2992   17.5525 H       1  <0>         0.0797
     21 H2         11.7325   -1.3612   24.4838 H       1  <0>         0.1000
     22 H3         12.6473    5.2330   19.6594 H       1  <0>         0.1048
     23 H4         14.3813   -0.0218   20.5647 H       1  <0>         0.0344
     24 H5         13.7402    1.6492   20.8319 H       1  <0>         0.0344
     25 H6         13.3379    1.2261   18.5469 H       1  <0>         0.0468
     26 H7         12.8139   -0.4762   18.8620 H       1  <0>         0.0468
     27 H8         10.4868   -0.8519   19.6776 H       1  <0>         0.0527
     28 H9          9.6610    0.5902   20.4079 H       1  <0>         0.0527
     29 H10         8.0176    5.4594   18.0189 H       1  <0>         0.1531
     30 H11         9.8742   -1.0996   22.7648 H       1  <0>         0.1528
@<TRIPOS>BOND
     1     1     7    2
     2     1    13    1
     3     2    14    1
     4     2    15    2
     5     3    16   ar
     6     3    17   ar
     7     4     5    1
     8     4     8    1
     9     5    18    1
    10     6     9    1
    11     6    18    1
    12     7    10    1
    13     7    19    1
    14     8     9    2
    15     8    15    1
    16     9    14    1
    17    10    11   ar
    18    10    12   ar
    19    11    13    1
    20    11    16   ar
    21    12    17   ar
    22    12    18    1
    23     1    20    1
    24     2    21    1
    25     3    22    1
    26     4    23    1
    27     4    24    1
    28     5    25    1
    29     5    26    1
    30     6    27    1
    31     6    28    1
    32    13    29    1
    33    14    30    1
@<TRIPOS>SUBSTRUCTURE
     1 <0>         1 TEMP              0 ****  ****    0 ROOT

