
##########                                Name:        CQW_999_3CQW
##########                    Molecular_Weight:             274.712
##########                DOCK_Rotatable_Bonds:                   1
##########                       Formal_Charge:         9.99719e-05
##########                     HBond_Acceptors:                   7
##########                        HBond_Donors:                   2
##########                         Heavy_Atoms:                  19
##########                            HA_RMSDs:               6.228
##########                            HA_RMSDh:               6.221
##########                            HA_RMSDm:               5.262
##########                          Grid_Score:          -38.592033
##########                     Grid_vdw_energy:          -38.208340
##########                      Grid_es_energy:           -0.383693
##########           Internal_energy_repulsive:            3.880585

@<TRIPOS>MOLECULE
CQW_999_3CQW
 30 33 1 0 0
SMALL
USER_CHARGES


@<TRIPOS>ATOM
      1 C1          7.9063    3.8083   18.0985 C.2     1  <0>         0.0142
      2 C2         12.6004   -0.3614   23.6224 C.2     1  <0>         0.0856
      3 C3         12.1426    4.8334   19.3298 C.ar    1  <0>         0.1202
      4 C4         13.7649    0.8309   20.3552 C.3     1  <0>         0.0070
      5 C5         12.8181    0.7486   19.1366 C.3     1  <0>         0.0194
      6 C6         10.8613    0.5336   20.5223 C.3     1  <0>         0.0533
      7 C7          8.6478    2.7208   18.3700 C.2     1  <0>         0.0685
      8 C8         13.0989    0.4645   21.6467 C.2     1  <0>         0.0627
      9 C9         11.7686    0.2941   21.7044 C.2     1  <0>         0.0478
     10 C10         9.9838    3.2054   18.7924 C.ar    1  <0>         0.0744
     11 C11         9.9251    4.6105   18.6600 C.ar    1  <0>         0.1362
     12 C12        11.2136    2.6798   19.2453 C.ar    1  <0>         0.1353
     13 N1          8.6418    4.9531   18.2583 N.pl3   1  <0>        -0.3037
     14 N2         11.4642   -0.2171   22.9471 N.pl3   1  <0>        -0.3061
     15 N3         13.6285    0.0265   22.8415 N.2     1  <0>        -0.2430
     16 N4         10.9869    5.3754   18.9230 N.ar    1  <0>        -0.2199
     17 N5         12.2423    3.5114   19.4522 N.ar    1  <0>        -0.2200
     18 N6         11.4708    1.3021   19.4115 N.pl3   1  <0>        -0.3086
     19 Cl1         8.0665    1.0840   18.2372 Cl      1  <0>        -0.0814
     20 H1          6.8701    3.7831   17.7952 H       1  <0>         0.0797
     21 H2         12.6858   -0.7299   24.6339 H       1  <0>         0.1000
     22 H3         12.9885    5.4652   19.5572 H       1  <0>         0.1048
     23 H4         14.6007    0.1353   20.1893 H       1  <0>         0.0344
     24 H5         14.1308    1.8650   20.4377 H       1  <0>         0.0344
     25 H6         13.2657    1.3225   18.3118 H       1  <0>         0.0468
     26 H7         12.7066   -0.3092   18.8564 H       1  <0>         0.0468
     27 H8         10.5636   -0.4481   20.1253 H       1  <0>         0.0527
     28 H9          9.9885    1.0992   20.8802 H       1  <0>         0.0527
     29 H10         8.3081    5.8840   18.1097 H       1  <0>         0.1531
     30 H11        10.5490   -0.4406   23.2824 H       1  <0>         0.1528
@<TRIPOS>BOND
     1     1     7    2
     2     1    13    1
     3     2    14    1
     4     2    15    2
     5     3    16   ar
     6     3    17   ar
     7     4     5    1
     8     4     8    1
     9     5    18    1
    10     6     9    1
    11     6    18    1
    12     7    10    1
    13     7    19    1
    14     8     9    2
    15     8    15    1
    16     9    14    1
    17    10    11   ar
    18    10    12   ar
    19    11    13    1
    20    11    16   ar
    21    12    17   ar
    22    12    18    1
    23     1    20    1
    24     2    21    1
    25     3    22    1
    26     4    23    1
    27     4    24    1
    28     5    25    1
    29     5    26    1
    30     6    27    1
    31     6    28    1
    32    13    29    1
    33    14    30    1
@<TRIPOS>SUBSTRUCTURE
     1 <0>         1 TEMP              0 ****  ****    0 ROOT

