
##########                                Name:        CQW_999_3CQW
##########                    Molecular_Weight:             274.712
##########                DOCK_Rotatable_Bonds:                   1
##########                       Formal_Charge:         9.99719e-05
##########                     HBond_Acceptors:                   7
##########                        HBond_Donors:                   2
##########                         Heavy_Atoms:                  19
##########                            HA_RMSDs:               6.876
##########                            HA_RMSDh:               6.838
##########                            HA_RMSDm:               5.798
##########                          Grid_Score:          -36.118889
##########                     Grid_vdw_energy:          -33.742546
##########                      Grid_es_energy:           -2.376345
##########           Internal_energy_repulsive:            4.800073

@<TRIPOS>MOLECULE
CQW_999_3CQW
 30 33 1 0 0
SMALL
USER_CHARGES


@<TRIPOS>ATOM
      1 C1          8.3812    3.1192   19.1433 C.2     1  <0>         0.0142
      2 C2         11.9475   -4.1245   19.5899 C.2     1  <0>         0.0856
      3 C3         12.8578    2.6476   18.6426 C.ar    1  <0>         0.1202
      4 C4         13.0703   -1.5775   17.2016 C.3     1  <0>         0.0070
      5 C5         12.0207   -0.7280   16.4498 C.3     1  <0>         0.0194
      6 C6         10.2889   -1.2468   18.0395 C.3     1  <0>         0.0533
      7 C7          8.7176    1.9867   18.5026 C.2     1  <0>         0.0685
      8 C8         12.4725   -2.4550   18.2592 C.2     1  <0>         0.0627
      9 C9         11.1840   -2.3196   18.6105 C.2     1  <0>         0.0478
     10 C10        10.1986    1.9478   18.4464 C.ar    1  <0>         0.0744
     11 C11        10.6218    3.1612   19.0330 C.ar    1  <0>         0.1362
     12 C12        11.2253    1.0945   17.9865 C.ar    1  <0>         0.1353
     13 N1          9.4963    3.8452   19.4699 N.pl3   1  <0>        -0.3037
     14 N2         10.8651   -3.3653   19.4490 N.pl3   1  <0>        -0.3061
     15 N3         12.9483   -3.6053   18.8509 N.2     1  <0>        -0.2430
     16 N4         11.9162    3.4773   19.1117 N.ar    1  <0>        -0.2199
     17 N5         12.4982    1.5013   18.0689 N.ar    1  <0>        -0.2200
     18 N6         10.9971   -0.1437   17.3486 N.pl3   1  <0>        -0.3086
     19 Cl1         7.5662    0.8289   17.8955 Cl      1  <0>        -0.0814
     20 H1          7.3682    3.4170   19.3702 H       1  <0>         0.0797
     21 H2         12.0142   -5.0141   20.1987 H       1  <0>         0.1000
     22 H3         13.9025    2.9072   18.7294 H       1  <0>         0.1048
     23 H4         13.5815   -2.2200   16.4696 H       1  <0>         0.0344
     24 H5         13.7845   -0.8942   17.6843 H       1  <0>         0.0344
     25 H6         12.5431    0.0948   15.9398 H       1  <0>         0.0468
     26 H7         11.5114   -1.3745   15.7201 H       1  <0>         0.0468
     27 H8          9.6200   -1.7241   17.3083 H       1  <0>         0.0527
     28 H9          9.7198   -0.8083   18.8724 H       1  <0>         0.0527
     29 H10         9.4987    4.7247   19.9457 H       1  <0>         0.1531
     30 H11         9.9755   -3.5253   19.8767 H       1  <0>         0.1528
@<TRIPOS>BOND
     1     1     7    2
     2     1    13    1
     3     2    14    1
     4     2    15    2
     5     3    16   ar
     6     3    17   ar
     7     4     5    1
     8     4     8    1
     9     5    18    1
    10     6     9    1
    11     6    18    1
    12     7    10    1
    13     7    19    1
    14     8     9    2
    15     8    15    1
    16     9    14    1
    17    10    11   ar
    18    10    12   ar
    19    11    13    1
    20    11    16   ar
    21    12    17   ar
    22    12    18    1
    23     1    20    1
    24     2    21    1
    25     3    22    1
    26     4    23    1
    27     4    24    1
    28     5    25    1
    29     5    26    1
    30     6    27    1
    31     6    28    1
    32    13    29    1
    33    14    30    1
@<TRIPOS>SUBSTRUCTURE
     1 <0>         1 TEMP              0 ****  ****    0 ROOT

