
##########                                Name:        CQW_999_3CQW
##########                    Molecular_Weight:             274.712
##########                DOCK_Rotatable_Bonds:                   1
##########                       Formal_Charge:         9.99719e-05
##########                     HBond_Acceptors:                   7
##########                        HBond_Donors:                   2
##########                         Heavy_Atoms:                  19
##########                            HA_RMSDs:               9.575
##########                            HA_RMSDh:               9.575
##########                            HA_RMSDm:               9.280
##########                          Grid_Score:          -37.563278
##########                     Grid_vdw_energy:          -35.519211
##########                      Grid_es_energy:           -2.044066
##########           Internal_energy_repulsive:            4.373071

@<TRIPOS>MOLECULE
CQW_999_3CQW
 30 33 1 0 0
SMALL
USER_CHARGES


@<TRIPOS>ATOM
      1 C1          8.9688   -6.7206   18.9123 C.2     1  <0>         0.0142
      2 C2         11.4848   -0.2526   23.2543 C.2     1  <0>         0.0856
      3 C3         11.9524   -3.6915   17.3516 C.ar    1  <0>         0.1202
      4 C4         13.7507   -2.2345   21.1591 C.3     1  <0>         0.0070
      5 C5         13.6033   -3.7725   21.1272 C.3     1  <0>         0.0194
      6 C6         11.3600   -3.6937   21.9974 C.3     1  <0>         0.0533
      7 C7          9.7842   -6.2502   19.8715 C.2     1  <0>         0.0685
      8 C8         12.6573   -1.5518   21.9234 C.2     1  <0>         0.0627
      9 C9         11.5807   -2.2394   22.3360 C.2     1  <0>         0.0478
     10 C10        10.6712   -5.2503   19.2300 C.ar    1  <0>         0.0744
     11 C11        10.3227   -5.2726   17.8613 C.ar    1  <0>         0.1362
     12 C12        11.7042   -4.3569   19.5885 C.ar    1  <0>         0.1353
     13 N1          9.2676   -6.1592   17.6988 N.pl3   1  <0>        -0.3037
     14 N2         10.8485   -1.4166   23.1635 N.pl3   1  <0>        -0.3061
     15 N3         12.6151   -0.3108   22.5219 N.2     1  <0>        -0.2430
     16 N4         10.9623   -4.5101   16.9717 N.ar    1  <0>        -0.2199
     17 N5         12.3205   -3.6533   18.6306 N.ar    1  <0>        -0.2200
     18 N6         12.2073   -4.2159   20.8996 N.pl3   1  <0>        -0.3086
     19 Cl1         9.7330   -6.7633   21.5355 Cl      1  <0>        -0.0814
     20 H1          8.1837   -7.4438   19.0760 H       1  <0>         0.0797
     21 H2         11.1499    0.6021   23.8233 H       1  <0>         0.1000
     22 H3         12.4492   -3.0662   16.6246 H       1  <0>         0.1048
     23 H4         14.7102   -1.9905   21.6385 H       1  <0>         0.0344
     24 H5         13.7292   -1.8651   20.1232 H       1  <0>         0.0344
     25 H6         14.2274   -4.1627   20.3098 H       1  <0>         0.0468
     26 H7         13.9392   -4.1720   22.0954 H       1  <0>         0.0468
     27 H8         11.5805   -4.2838   22.8992 H       1  <0>         0.0527
     28 H9         10.3095   -3.8100   21.6928 H       1  <0>         0.0527
     29 H10         8.8013   -6.3562   16.8364 H       1  <0>         0.1531
     30 H11         9.9890   -1.6532   23.6166 H       1  <0>         0.1528
@<TRIPOS>BOND
     1     1     7    2
     2     1    13    1
     3     2    14    1
     4     2    15    2
     5     3    16   ar
     6     3    17   ar
     7     4     5    1
     8     4     8    1
     9     5    18    1
    10     6     9    1
    11     6    18    1
    12     7    10    1
    13     7    19    1
    14     8     9    2
    15     8    15    1
    16     9    14    1
    17    10    11   ar
    18    10    12   ar
    19    11    13    1
    20    11    16   ar
    21    12    17   ar
    22    12    18    1
    23     1    20    1
    24     2    21    1
    25     3    22    1
    26     4    23    1
    27     4    24    1
    28     5    25    1
    29     5    26    1
    30     6    27    1
    31     6    28    1
    32    13    29    1
    33    14    30    1
@<TRIPOS>SUBSTRUCTURE
     1 <0>         1 TEMP              0 ****  ****    0 ROOT

