
##########                                Name:        CQW_999_3CQW
##########                    Molecular_Weight:             274.712
##########                DOCK_Rotatable_Bonds:                   1
##########                       Formal_Charge:         9.99719e-05
##########                     HBond_Acceptors:                   7
##########                        HBond_Donors:                   2
##########                         Heavy_Atoms:                  19
##########                            HA_RMSDs:               8.341
##########                            HA_RMSDh:               7.858
##########                            HA_RMSDm:               6.778
##########                          Grid_Score:          -37.373169
##########                     Grid_vdw_energy:          -35.711349
##########                      Grid_es_energy:           -1.661818
##########           Internal_energy_repulsive:            6.950073

@<TRIPOS>MOLECULE
CQW_999_3CQW
 30 33 1 0 0
SMALL
USER_CHARGES


@<TRIPOS>ATOM
      1 C1         12.4432   -3.6873   21.5018 C.2     1  <0>         0.0142
      2 C2          7.6237    2.3318   20.1270 C.2     1  <0>         0.0856
      3 C3         12.8614   -1.5570   17.5270 C.ar    1  <0>         0.1202
      4 C4         10.9899    2.3871   18.6717 C.3     1  <0>         0.0070
      5 C5         12.1957    1.9496   19.5335 C.3     1  <0>         0.0194
      6 C6         10.7977    0.7831   21.1084 C.3     1  <0>         0.0533
      7 C7         12.2536   -2.3604   21.5992 C.2     1  <0>         0.0685
      8 C8          9.6696    2.1549   19.3416 C.2     1  <0>         0.0627
      9 C9          9.5969    1.4480   20.4805 C.2     1  <0>         0.0478
     10 C10        12.3806   -1.8060   20.2300 C.ar    1  <0>         0.0744
     11 C11        12.7183   -2.9095   19.4153 C.ar    1  <0>         0.1362
     12 C12        12.2764   -0.5620   19.5704 C.ar    1  <0>         0.1353
     13 N1         12.7269   -4.0467   20.2105 N.pl3   1  <0>        -0.3037
     14 N2          8.3109    1.5586   20.9622 N.pl3   1  <0>        -0.3061
     15 N3          8.4374    2.7357   19.1310 N.2     1  <0>        -0.2430
     16 N4         12.9500   -2.7603   18.1093 N.ar    1  <0>        -0.2199
     17 N5         12.5604   -0.4898   18.2640 N.ar    1  <0>        -0.2200
     18 N6         11.9771    0.6545   20.2205 N.pl3   1  <0>        -0.3086
     19 Cl1        11.9136   -1.5290   23.0918 Cl      1  <0>        -0.0814
     20 H1         12.3804   -4.3775   22.3301 H       1  <0>         0.0797
     21 H2          6.5810    2.5940   20.2299 H       1  <0>         0.1000
     22 H3         13.0332   -1.4532   16.4658 H       1  <0>         0.1048
     23 H4         11.0867    3.4632   18.4652 H       1  <0>         0.0344
     24 H5         11.0076    1.8090   17.7361 H       1  <0>         0.0344
     25 H6         13.0718    1.8485   18.8761 H       1  <0>         0.0468
     26 H7         12.3722    2.7208   20.2978 H       1  <0>         0.0468
     27 H8         11.0979    1.3874   21.9771 H       1  <0>         0.0527
     28 H9         10.4971   -0.2301   21.4133 H       1  <0>         0.0527
     29 H10        12.9103   -4.9770   19.8928 H       1  <0>         0.1531
     30 H11         7.9564    1.1321   21.7943 H       1  <0>         0.1528
@<TRIPOS>BOND
     1     1     7    2
     2     1    13    1
     3     2    14    1
     4     2    15    2
     5     3    16   ar
     6     3    17   ar
     7     4     5    1
     8     4     8    1
     9     5    18    1
    10     6     9    1
    11     6    18    1
    12     7    10    1
    13     7    19    1
    14     8     9    2
    15     8    15    1
    16     9    14    1
    17    10    11   ar
    18    10    12   ar
    19    11    13    1
    20    11    16   ar
    21    12    17   ar
    22    12    18    1
    23     1    20    1
    24     2    21    1
    25     3    22    1
    26     4    23    1
    27     4    24    1
    28     5    25    1
    29     5    26    1
    30     6    27    1
    31     6    28    1
    32    13    29    1
    33    14    30    1
@<TRIPOS>SUBSTRUCTURE
     1 <0>         1 TEMP              0 ****  ****    0 ROOT

