
##########                                Name:        CQW_999_3CQW
##########                    Molecular_Weight:             274.712
##########                DOCK_Rotatable_Bonds:                   1
##########                       Formal_Charge:         9.99719e-05
##########                     HBond_Acceptors:                   7
##########                        HBond_Donors:                   2
##########                         Heavy_Atoms:                  19
##########                            HA_RMSDs:               5.961
##########                            HA_RMSDh:               5.961
##########                            HA_RMSDm:               4.991
##########                          Grid_Score:          -37.691292
##########                     Grid_vdw_energy:          -37.264828
##########                      Grid_es_energy:           -0.426462
##########           Internal_energy_repulsive:            4.378464

@<TRIPOS>MOLECULE
CQW_999_3CQW
 30 33 1 0 0
SMALL
USER_CHARGES


@<TRIPOS>ATOM
      1 C1          7.5915    3.2281   17.9800 C.2     1  <0>         0.0142
      2 C2         12.6468   -0.7385   23.0499 C.2     1  <0>         0.0856
      3 C3         11.6683    4.8106   19.1579 C.ar    1  <0>         0.1202
      4 C4         13.8243    1.0146   20.0512 C.3     1  <0>         0.0070
      5 C5         12.9959    0.9303   18.7493 C.3     1  <0>         0.0194
      6 C6         11.0093    0.2363   19.9187 C.3     1  <0>         0.0533
      7 C7          8.5044    2.2538   18.1332 C.2     1  <0>         0.0685
      8 C8         13.1388    0.3913   21.2291 C.2     1  <0>         0.0627
      9 C9         11.8563    0.0035   21.1460 C.2     1  <0>         0.0478
     10 C10         9.7666    2.9089   18.5525 C.ar    1  <0>         0.0744
     11 C11         9.4844    4.2930   18.5430 C.ar    1  <0>         0.1362
     12 C12        11.0823    2.5507   18.9189 C.ar    1  <0>         0.1353
     13 N1          8.1466    4.4586   18.2137 N.pl3   1  <0>        -0.3037
     14 N2         11.5544   -0.6976   22.2930 N.pl3   1  <0>        -0.3061
     15 N3         13.6476   -0.0981   22.4129 N.2     1  <0>        -0.2430
     16 N4         10.4253    5.1932   18.8364 N.ar    1  <0>        -0.2199
     17 N5         11.9777    3.5156   19.1632 N.ar    1  <0>        -0.2200
     18 N6         11.5577    1.2223   18.9580 N.pl3   1  <0>        -0.3086
     19 Cl1         8.1790    0.5613   17.8793 Cl      1  <0>        -0.0814
     20 H1          6.5591    3.0632   17.7091 H       1  <0>         0.0797
     21 H2         12.7204   -1.2090   24.0192 H       1  <0>         0.1000
     22 H3         12.4152    5.5484   19.4114 H       1  <0>         0.1048
     23 H4         14.7761    0.4879   19.8883 H       1  <0>         0.0344
     24 H5         14.0018    2.0762   20.2781 H       1  <0>         0.0344
     25 H6         13.3976    1.6649   18.0358 H       1  <0>         0.0468
     26 H7         13.0867   -0.0895   18.3473 H       1  <0>         0.0468
     27 H8         10.9126   -0.7247   19.3923 H       1  <0>         0.0527
     28 H9         10.0294    0.6064   20.2543 H       1  <0>         0.0527
     29 H10         7.6660    5.3337   18.1563 H       1  <0>         0.1531
     30 H11        10.6688   -1.1045   22.5170 H       1  <0>         0.1528
@<TRIPOS>BOND
     1     1     7    2
     2     1    13    1
     3     2    14    1
     4     2    15    2
     5     3    16   ar
     6     3    17   ar
     7     4     5    1
     8     4     8    1
     9     5    18    1
    10     6     9    1
    11     6    18    1
    12     7    10    1
    13     7    19    1
    14     8     9    2
    15     8    15    1
    16     9    14    1
    17    10    11   ar
    18    10    12   ar
    19    11    13    1
    20    11    16   ar
    21    12    17   ar
    22    12    18    1
    23     1    20    1
    24     2    21    1
    25     3    22    1
    26     4    23    1
    27     4    24    1
    28     5    25    1
    29     5    26    1
    30     6    27    1
    31     6    28    1
    32    13    29    1
    33    14    30    1
@<TRIPOS>SUBSTRUCTURE
     1 <0>         1 TEMP              0 ****  ****    0 ROOT

