
##########                                Name:        CQW_999_3CQW
##########                    Molecular_Weight:             274.712
##########                DOCK_Rotatable_Bonds:                   1
##########                       Formal_Charge:         9.99719e-05
##########                     HBond_Acceptors:                   7
##########                        HBond_Donors:                   2
##########                         Heavy_Atoms:                  19
##########                            HA_RMSDs:              10.837
##########                            HA_RMSDh:              10.616
##########                            HA_RMSDm:               9.530
##########                          Grid_Score:          -37.942837
##########                     Grid_vdw_energy:          -37.706230
##########                      Grid_es_energy:           -0.236607
##########           Internal_energy_repulsive:            4.866857

@<TRIPOS>MOLECULE
CQW_999_3CQW
 30 33 1 0 0
SMALL
USER_CHARGES


@<TRIPOS>ATOM
      1 C1         12.2072   -0.8000   21.0729 C.2     1  <0>         0.0142
      2 C2         12.3034   -8.6790   22.8313 C.2     1  <0>         0.0856
      3 C3         11.4651   -3.9324   17.8871 C.ar    1  <0>         0.1202
      4 C4          9.9278   -7.2917   20.4055 C.3     1  <0>         0.0070
      5 C5          9.2431   -5.9387   20.7036 C.3     1  <0>         0.0194
      6 C6         10.8952   -5.3299   22.3453 C.3     1  <0>         0.0533
      7 C7         11.5221   -1.8602   21.5341 C.2     1  <0>         0.0685
      8 C8         10.9901   -7.6482   21.4008 C.2     1  <0>         0.0627
      9 C9         11.4010   -6.7515   22.3113 C.2     1  <0>         0.0478
     10 C10        11.3887   -2.8109   20.4042 C.ar    1  <0>         0.0744
     11 C11        11.9827   -2.1582   19.3012 C.ar    1  <0>         0.1362
     12 C12        10.8555   -4.0929   20.1477 C.ar    1  <0>         0.1353
     13 N1         12.4939   -0.9455   19.7411 N.pl3   1  <0>        -0.3037
     14 N2         12.2281   -7.4037   23.1994 N.pl3   1  <0>        -0.3061
     15 N3         11.5332   -8.8685   21.7412 N.2     1  <0>        -0.2430
     16 N4         12.0025   -2.7224   18.0916 N.ar    1  <0>        -0.2199
     17 N5         10.8824   -4.5732   18.8983 N.ar    1  <0>        -0.2200
     18 N6         10.1996   -4.8838   21.1153 N.pl3   1  <0>        -0.3086
     19 Cl1        10.9465   -2.0146   23.1710 Cl      1  <0>        -0.0814
     20 H1         12.4933    0.0521   21.6717 H       1  <0>         0.0797
     21 H2         12.8877   -9.4408   23.3260 H       1  <0>         0.1000
     22 H3         11.5044   -4.3856   16.9075 H       1  <0>         0.1048
     23 H4          9.1592   -8.0784   20.4256 H       1  <0>         0.0344
     24 H5         10.3943   -7.2299   19.4113 H       1  <0>         0.0344
     25 H6          8.7299   -5.6026   19.7906 H       1  <0>         0.0468
     26 H7          8.5217   -6.0890   21.5202 H       1  <0>         0.0468
     27 H8         10.1833   -5.2484   23.1799 H       1  <0>         0.0527
     28 H9         11.7624   -4.6703   22.4964 H       1  <0>         0.0527
     29 H10        12.9907   -0.2852   19.1778 H       1  <0>         0.1531
     30 H11        12.6908   -6.9902   23.9836 H       1  <0>         0.1528
@<TRIPOS>BOND
     1     1     7    2
     2     1    13    1
     3     2    14    1
     4     2    15    2
     5     3    16   ar
     6     3    17   ar
     7     4     5    1
     8     4     8    1
     9     5    18    1
    10     6     9    1
    11     6    18    1
    12     7    10    1
    13     7    19    1
    14     8     9    2
    15     8    15    1
    16     9    14    1
    17    10    11   ar
    18    10    12   ar
    19    11    13    1
    20    11    16   ar
    21    12    17   ar
    22    12    18    1
    23     1    20    1
    24     2    21    1
    25     3    22    1
    26     4    23    1
    27     4    24    1
    28     5    25    1
    29     5    26    1
    30     6    27    1
    31     6    28    1
    32    13    29    1
    33    14    30    1
@<TRIPOS>SUBSTRUCTURE
     1 <0>         1 TEMP              0 ****  ****    0 ROOT

