
##########                                Name:        CQW_999_3CQW
##########                    Molecular_Weight:             274.712
##########                DOCK_Rotatable_Bonds:                   1
##########                       Formal_Charge:         9.99719e-05
##########                     HBond_Acceptors:                   7
##########                        HBond_Donors:                   2
##########                         Heavy_Atoms:                  19
##########                            HA_RMSDs:               6.529
##########                            HA_RMSDh:               6.523
##########                            HA_RMSDm:               5.474
##########                          Grid_Score:          -40.248306
##########                     Grid_vdw_energy:          -39.720226
##########                      Grid_es_energy:           -0.528078
##########           Internal_energy_repulsive:            3.466236

@<TRIPOS>MOLECULE
CQW_999_3CQW
 30 33 1 0 0
SMALL
USER_CHARGES


@<TRIPOS>ATOM
      1 C1          8.2358    3.4548   17.9296 C.2     1  <0>         0.0142
      2 C2         12.8499   -0.3202   24.1107 C.2     1  <0>         0.0856
      3 C3         12.3208    4.4952   19.5857 C.ar    1  <0>         0.1202
      4 C4         13.8801    0.4935   20.6860 C.3     1  <0>         0.0070
      5 C5         12.8628    0.3437   19.5324 C.3     1  <0>         0.0194
      6 C6         10.9801    0.3622   21.0327 C.3     1  <0>         0.0533
      7 C7          8.9140    2.3769   18.3592 C.2     1  <0>         0.0685
      8 C8         13.2726    0.2866   22.0403 C.2     1  <0>         0.0627
      9 C9         11.9413    0.1907   22.1838 C.2     1  <0>         0.0478
     10 C10        10.2021    2.8683   18.9046 C.ar    1  <0>         0.0744
     11 C11        10.1930    4.2618   18.6728 C.ar    1  <0>         0.1362
     12 C12        11.3572    2.3559   19.5346 C.ar    1  <0>         0.1353
     13 N1          8.9745    4.5961   18.0993 N.pl3   1  <0>        -0.3037
     14 N2         11.6850   -0.1833   23.4847 N.pl3   1  <0>        -0.3061
     15 N3         13.8487   -0.0618   23.2430 N.2     1  <0>        -0.2430
     16 N4         11.2344    5.0261   19.0089 N.ar    1  <0>        -0.2199
     17 N5         12.3739    3.1834   19.8068 N.ar    1  <0>        -0.2200
     18 N6         11.5600    0.9890   19.8216 N.pl3   1  <0>        -0.3086
     19 Cl1         8.3135    0.7443   18.2673 Cl      1  <0>        -0.0814
     20 H1          7.2422    3.4252   17.5073 H       1  <0>         0.0797
     21 H2         12.9758   -0.5944   25.1478 H       1  <0>         0.1000
     22 H3         13.1489    5.1277   19.8697 H       1  <0>         0.1048
     23 H4         14.6725   -0.2565   20.5459 H       1  <0>         0.0344
     24 H5         14.2971    1.5107   20.6474 H       1  <0>         0.0344
     25 H6         13.2885    0.8126   18.6331 H       1  <0>         0.0468
     26 H7         12.6872   -0.7289   19.3636 H       1  <0>         0.0468
     27 H8         10.6157   -0.6364   20.7501 H       1  <0>         0.0527
     28 H9         10.1559    1.0033   21.3785 H       1  <0>         0.0527
     29 H10         8.6829    5.5197   17.8504 H       1  <0>         0.1531
     30 H11        10.7810   -0.3267   23.8877 H       1  <0>         0.1528
@<TRIPOS>BOND
     1     1     7    2
     2     1    13    1
     3     2    14    1
     4     2    15    2
     5     3    16   ar
     6     3    17   ar
     7     4     5    1
     8     4     8    1
     9     5    18    1
    10     6     9    1
    11     6    18    1
    12     7    10    1
    13     7    19    1
    14     8     9    2
    15     8    15    1
    16     9    14    1
    17    10    11   ar
    18    10    12   ar
    19    11    13    1
    20    11    16   ar
    21    12    17   ar
    22    12    18    1
    23     1    20    1
    24     2    21    1
    25     3    22    1
    26     4    23    1
    27     4    24    1
    28     5    25    1
    29     5    26    1
    30     6    27    1
    31     6    28    1
    32    13    29    1
    33    14    30    1
@<TRIPOS>SUBSTRUCTURE
     1 <0>         1 TEMP              0 ****  ****    0 ROOT

