
##########                                Name:        CQW_999_3CQW
##########                    Molecular_Weight:             274.712
##########                DOCK_Rotatable_Bonds:                   1
##########                       Formal_Charge:         9.99719e-05
##########                     HBond_Acceptors:                   7
##########                        HBond_Donors:                   2
##########                         Heavy_Atoms:                  19
##########                            HA_RMSDs:               7.191
##########                            HA_RMSDh:               6.295
##########                            HA_RMSDm:               5.527
##########                          Grid_Score:          -35.667755
##########                     Grid_vdw_energy:          -33.765106
##########                      Grid_es_energy:           -1.902650
##########           Internal_energy_repulsive:            4.088342

@<TRIPOS>MOLECULE
CQW_999_3CQW
 30 33 1 0 0
SMALL
USER_CHARGES


@<TRIPOS>ATOM
      1 C1         12.1683   -2.3201   20.4603 C.2     1  <0>         0.0142
      2 C2          5.8251    2.0974   17.4998 C.2     1  <0>         0.0856
      3 C3         12.1641   -0.1454   16.4875 C.ar    1  <0>         0.1202
      4 C4          9.3258    3.1755   17.3126 C.3     1  <0>         0.0070
      5 C5         10.2644    2.9155   18.5125 C.3     1  <0>         0.0194
      6 C6          8.8166    1.2251   19.4302 C.3     1  <0>         0.0533
      7 C7         11.4714   -1.1715   20.4956 C.2     1  <0>         0.0685
      8 C8          7.9793    2.5359   17.4662 C.2     1  <0>         0.0627
      9 C9          7.7450    1.6694   18.4645 C.2     1  <0>         0.0478
     10 C10        11.5236   -0.5944   19.1310 C.ar    1  <0>         0.0744
     11 C11        12.3484   -1.4709   18.3914 C.ar    1  <0>         0.1362
     12 C12        11.0200    0.5202   18.4255 C.ar    1  <0>         0.1353
     13 N1         12.7084   -2.5256   19.2181 N.pl3   1  <0>        -0.3037
     14 N2          6.3950    1.3951   18.4743 N.pl3   1  <0>        -0.3061
     15 N3          6.7692    2.8294   16.8751 N.2     1  <0>        -0.2430
     16 N4         12.6462   -1.2275   17.1132 N.ar    1  <0>        -0.2199
     17 N5         11.3955    0.7128   17.1549 N.ar    1  <0>        -0.2200
     18 N6         10.2048    1.5177   19.0021 N.pl3   1  <0>        -0.3086
     19 Cl1        10.6753   -0.5551   21.9172 Cl      1  <0>        -0.0814
     20 H1         12.2866   -2.9909   21.2984 H       1  <0>         0.0797
     21 H2          4.7747    2.0837   17.2489 H       1  <0>         0.1000
     22 H3         12.3977    0.0299   15.4477 H       1  <0>         0.1048
     23 H4          9.1821    4.2619   17.2171 H       1  <0>         0.0344
     24 H5          9.8006    2.7657   16.4090 H       1  <0>         0.0344
     25 H6         11.2965    3.1271   18.1962 H       1  <0>         0.0468
     26 H7          9.9670    3.5827   19.3348 H       1  <0>         0.0468
     27 H8          8.6441    1.7463   20.3834 H       1  <0>         0.0527
     28 H9          8.7268    0.1355   19.5505 H       1  <0>         0.0527
     29 H10        13.2705   -3.3083   18.9507 H       1  <0>         0.1531
     30 H11         5.9257    0.7761   19.1042 H       1  <0>         0.1528
@<TRIPOS>BOND
     1     1     7    2
     2     1    13    1
     3     2    14    1
     4     2    15    2
     5     3    16   ar
     6     3    17   ar
     7     4     5    1
     8     4     8    1
     9     5    18    1
    10     6     9    1
    11     6    18    1
    12     7    10    1
    13     7    19    1
    14     8     9    2
    15     8    15    1
    16     9    14    1
    17    10    11   ar
    18    10    12   ar
    19    11    13    1
    20    11    16   ar
    21    12    17   ar
    22    12    18    1
    23     1    20    1
    24     2    21    1
    25     3    22    1
    26     4    23    1
    27     4    24    1
    28     5    25    1
    29     5    26    1
    30     6    27    1
    31     6    28    1
    32    13    29    1
    33    14    30    1
@<TRIPOS>SUBSTRUCTURE
     1 <0>         1 TEMP              0 ****  ****    0 ROOT

