
##########                                Name:          283_1_2OI0
##########                    Molecular_Weight:             311.426
##########                DOCK_Rotatable_Bonds:                   6
##########                       Formal_Charge:         0.000299983
##########                     HBond_Acceptors:                   6
##########                        HBond_Donors:                   1
##########                         Heavy_Atoms:                  20
##########                            HA_RMSDs:               3.790
##########                            HA_RMSDh:               3.419
##########                            HA_RMSDm:               3.224
##########                          Grid_Score:          -45.601501
##########                     Grid_vdw_energy:          -43.793930
##########                      Grid_es_energy:           -1.807573
##########           Internal_energy_repulsive:            8.934900

@<TRIPOS>MOLECULE
283_1_2OI0
 37 38 1 0 0
SMALL
USER_CHARGES


@<TRIPOS>ATOM
      1 C1         50.9728   28.2354    3.6547 C.3     1  <0>        -0.0025
      2 C2         46.3308   27.9686    5.0282 C.ar    1  <0>        -0.0298
      3 C3         45.7390   28.5462    2.7547 C.ar    1  <0>        -0.0298
      4 C4         45.9061   29.2608    5.4570 C.ar    1  <0>        -0.0326
      5 C5         45.3211   29.8047    3.1806 C.ar    1  <0>        -0.0326
      6 C6         41.7231   33.2526    3.9365 C.3     1  <0>        -0.0227
      7 C7         42.3004   33.0280    5.3126 C.3     1  <0>         0.0307
      8 C8         42.3497   31.1002    4.0084 C.3     1  <0>         0.0412
      9 C9         47.6560   25.6080    3.6690 C.3     1  <0>         0.1148
     10 C10        49.8511   27.2480    3.6521 C.1     1  <0>        -0.1033
     11 C11        48.9541   26.4749    3.6605 C.1     1  <0>        -0.0737
     12 C12        46.2408   27.6204    3.6605 C.ar    1  <0>         0.0775
     13 C13        45.3970   30.1684    4.5135 C.ar    1  <0>         0.1085
     14 C14        42.2101   32.1970    2.9545 C.3     1  <0>         0.0208
     15 N1         43.0579   31.7471    5.1568 N.pl3   1  <0>        -0.2330
     16 O1         45.5335   32.0454    6.1543 O.2     1  <0>        -0.1501
     17 O2         44.9459   32.7270    3.8198 O.2     1  <0>        -0.1501
     18 O3         46.6040   26.4102    3.0711 O.3     1  <0>        -0.3322
     19 S1         41.4674   31.7782    1.3880 S.3     1  <0>        -0.1732
     20 S2         44.8100   31.7783    4.9258 S.o2    1  <0>         0.0706
     21 H1         51.7732   27.8836    2.9871 H       1  <0>         0.0362
     22 H2         50.6039   29.2101    3.3027 H       1  <0>         0.0362
     23 H3         51.3671   28.3397    4.6763 H       1  <0>         0.0362
     24 H4         46.7191   27.2596    5.7444 H       1  <0>         0.0644
     25 H5         45.6722   28.2873    1.7084 H       1  <0>         0.0644
     26 H6         45.9753   29.5391    6.4982 H       1  <0>         0.0638
     27 H7         44.9316   30.5077    2.4591 H       1  <0>         0.0638
     28 H8         40.6259   33.2021    3.9982 H       1  <0>         0.0292
     29 H9         42.0353   34.2442    3.5770 H       1  <0>         0.0292
     30 H10        42.9591   33.8549    5.6164 H       1  <0>         0.0478
     31 H11        41.5120   32.9435    6.0749 H       1  <0>         0.0478
     32 H12        41.3630   30.7242    4.3169 H       1  <0>         0.0489
     33 H13        42.9296   30.2512    3.6173 H       1  <0>         0.0489
     34 H14        47.8092   24.6863    3.0885 H       1  <0>         0.0702
     35 H15        47.3873   25.3339    4.6999 H       1  <0>         0.0702
     36 H16        43.0632   32.5397    2.3504 H       1  <0>         0.0426
     37 H17        42.1987   30.7753    1.0017 H       1  <0>         0.1020
@<TRIPOS>BOND
     1     1    10    1
     2     2     4   ar
     3     2    12   ar
     4     3     5   ar
     5     3    12   ar
     6     4    13   ar
     7     5    13   ar
     8     6     7    1
     9     6    14    1
    10     7    15    1
    11     8    14    1
    12     8    15    1
    13     9    11    1
    14     9    18    1
    15    10    11    3
    16    12    18    1
    17    13    20    1
    18    14    19    1
    19    15    20    1
    20    16    20    2
    21    17    20    2
    22     1    21    1
    23     1    22    1
    24     1    23    1
    25     2    24    1
    26     3    25    1
    27     4    26    1
    28     5    27    1
    29     6    28    1
    30     6    29    1
    31     7    30    1
    32     7    31    1
    33     8    32    1
    34     8    33    1
    35     9    34    1
    36     9    35    1
    37    14    36    1
    38    19    37    1
@<TRIPOS>SUBSTRUCTURE
     1 <0>         1 TEMP              0 ****  ****    0 ROOT

