
##########                                Name:          283_1_2OI0
##########                    Molecular_Weight:             311.426
##########                DOCK_Rotatable_Bonds:                   6
##########                       Formal_Charge:         0.000299983
##########                     HBond_Acceptors:                   6
##########                        HBond_Donors:                   1
##########                         Heavy_Atoms:                  20
##########                            HA_RMSDs:               0.528
##########                            HA_RMSDh:               0.528
##########                            HA_RMSDm:               0.528
##########                          Grid_Score:          -44.349461
##########                     Grid_vdw_energy:          -44.343597
##########                      Grid_es_energy:           -0.005864
##########           Internal_energy_repulsive:            9.047656

@<TRIPOS>MOLECULE
283_1_2OI0
 37 38 1 0 0
SMALL
USER_CHARGES


@<TRIPOS>ATOM
      1 C1         48.1962   23.4792    2.9200 C.3     1  <0>        -0.0025
      2 C2         46.3203   27.8574    2.5926 C.ar    1  <0>        -0.0298
      3 C3         44.5692   28.1168    4.2416 C.ar    1  <0>        -0.0298
      4 C4         45.4021   28.2414    1.5711 C.ar    1  <0>        -0.0326
      5 C5         43.6787   28.4961    3.2401 C.ar    1  <0>        -0.0326
      6 C6         40.8382   31.9612    1.2946 C.3     1  <0>        -0.0227
      7 C7         41.6256   31.5376    0.0789 C.3     1  <0>         0.0307
      8 C8         42.9035   31.4779    2.0240 C.3     1  <0>         0.0412
      9 C9         48.0687   27.2113    4.9102 C.3     1  <0>         0.1148
     10 C10        48.2209   24.7811    3.6534 C.1     1  <0>        -0.1033
     11 C11        48.2327   25.8196    4.2223 C.1     1  <0>        -0.0737
     12 C12        45.8867   27.7988    3.9375 C.ar    1  <0>         0.0775
     13 C13        44.0793   28.5631    1.9173 C.ar    1  <0>         0.1085
     14 C14        41.4791   31.4451    2.5747 C.3     1  <0>         0.0208
     15 N1         42.8152   30.8484    0.6694 N.pl3   1  <0>        -0.2330
     16 O1         43.3572   28.4783   -0.4712 O.2     1  <0>        -0.1501
     17 O2         41.5012   28.7690    1.1811 O.2     1  <0>        -0.1501
     18 O3         46.6439   27.4498    5.0549 O.3     1  <0>        -0.3322
     19 S1         41.1946   32.0535    4.2269 S.3     1  <0>        -0.1732
     20 S2         42.8643   29.0835    0.7513 S.o2    1  <0>         0.0706
     21 H1         48.6947   22.7075    3.5249 H       1  <0>         0.0362
     22 H2         47.1532   23.1828    2.7347 H       1  <0>         0.0362
     23 H3         48.7223   23.5892    1.9602 H       1  <0>         0.0362
     24 H4         47.3415   27.6127    2.3404 H       1  <0>         0.0644
     25 H5         44.2315   28.0695    5.2663 H       1  <0>         0.0644
     26 H6         45.7211   28.2844    0.5402 H       1  <0>         0.0638
     27 H7         42.6596   28.7417    3.5000 H       1  <0>         0.0638
     28 H8         40.8043   33.0601    1.3315 H       1  <0>         0.0292
     29 H9         39.8190   31.5547    1.2179 H       1  <0>         0.0292
     30 H10        41.0443   30.8627   -0.5665 H       1  <0>         0.0478
     31 H11        41.9202   32.4013   -0.5354 H       1  <0>         0.0478
     32 H12        43.2735   32.5114    1.9535 H       1  <0>         0.0489
     33 H13        43.5892   30.9154    2.6746 H       1  <0>         0.0489
     34 H14        48.5569   27.2093    5.8959 H       1  <0>         0.0702
     35 H15        48.5262   27.9982    4.2926 H       1  <0>         0.0702
     36 H16        41.0140   30.5171    2.9388 H       1  <0>         0.0426
     37 H17        42.1092   31.4278    4.9066 H       1  <0>         0.1020
@<TRIPOS>BOND
     1     1    10    1
     2     2     4   ar
     3     2    12   ar
     4     3     5   ar
     5     3    12   ar
     6     4    13   ar
     7     5    13   ar
     8     6     7    1
     9     6    14    1
    10     7    15    1
    11     8    14    1
    12     8    15    1
    13     9    11    1
    14     9    18    1
    15    10    11    3
    16    12    18    1
    17    13    20    1
    18    14    19    1
    19    15    20    1
    20    16    20    2
    21    17    20    2
    22     1    21    1
    23     1    22    1
    24     1    23    1
    25     2    24    1
    26     3    25    1
    27     4    26    1
    28     5    27    1
    29     6    28    1
    30     6    29    1
    31     7    30    1
    32     7    31    1
    33     8    32    1
    34     8    33    1
    35     9    34    1
    36     9    35    1
    37    14    36    1
    38    19    37    1
@<TRIPOS>SUBSTRUCTURE
     1 <0>         1 TEMP              0 ****  ****    0 ROOT

