
##########                                Name:          283_1_2OI0
##########                    Molecular_Weight:             311.426
##########                DOCK_Rotatable_Bonds:                   6
##########                       Formal_Charge:         0.000299983
##########                     HBond_Acceptors:                   6
##########                        HBond_Donors:                   1
##########                         Heavy_Atoms:                  20
##########                            HA_RMSDs:               3.380
##########                            HA_RMSDh:               3.026
##########                            HA_RMSDm:               2.921
##########                          Grid_Score:          -45.770287
##########                     Grid_vdw_energy:          -44.117451
##########                      Grid_es_energy:           -1.652838
##########           Internal_energy_repulsive:           14.473194

@<TRIPOS>MOLECULE
283_1_2OI0
 37 38 1 0 0
SMALL
USER_CHARGES


@<TRIPOS>ATOM
      1 C1         51.7049   27.6700    4.2129 C.3     1  <0>        -0.0025
      2 C2         46.7492   28.2625    4.5575 C.ar    1  <0>        -0.0298
      3 C3         45.9139   28.2801    2.2871 C.ar    1  <0>        -0.0298
      4 C4         46.0431   29.4743    4.8165 C.ar    1  <0>        -0.0326
      5 C5         45.2225   29.4607    2.5479 C.ar    1  <0>        -0.0326
      6 C6         41.2784   31.8220    2.1986 C.3     1  <0>        -0.0227
      7 C7         41.6100   32.1963    3.6224 C.3     1  <0>         0.0307
      8 C8         42.2691   30.0246    3.1035 C.3     1  <0>         0.0412
      9 C9         47.9990   25.6670    3.8135 C.3     1  <0>         0.1148
     10 C10        50.4305   26.8979    4.0982 C.1     1  <0>        -0.1033
     11 C11        49.4124   26.2993    4.0113 C.1     1  <0>        -0.0737
     12 C12        46.6753   27.6697    3.2756 C.ar    1  <0>         0.0775
     13 C13        45.2773   30.0589    3.7945 C.ar    1  <0>         0.1085
     14 C14        42.1343   30.6582    1.7202 C.3     1  <0>         0.0208
     15 N1         42.6084   31.1560    4.0221 N.pl3   1  <0>        -0.2330
     16 O1         44.8199   32.0094    5.2844 O.2     1  <0>        -0.1501
     17 O2         44.4293   32.4293    2.8491 O.2     1  <0>        -0.1501
     18 O3         47.2930   26.4941    2.8515 O.3     1  <0>        -0.3322
     19 S1         41.8001   29.5935    0.3289 S.3     1  <0>        -0.1732
     20 S2         44.3350   31.5338    4.0028 S.o2    1  <0>         0.0706
     21 H1         52.5552   27.0118    3.9809 H       1  <0>         0.0362
     22 H2         51.6887   28.5113    3.5044 H       1  <0>         0.0362
     23 H3         51.8089   28.0555    5.2379 H       1  <0>         0.0362
     24 H4         47.3373   27.8000    5.3363 H       1  <0>         0.0644
     25 H5         45.8574   27.8342    1.3051 H       1  <0>         0.0644
     26 H6         46.0969   29.9383    5.7902 H       1  <0>         0.0638
     27 H7         44.6344   29.9163    1.7650 H       1  <0>         0.0638
     28 H8         40.2190   31.5304    2.1448 H       1  <0>         0.0292
     29 H9         41.4640   32.6906    1.5498 H       1  <0>         0.0292
     30 H10        42.0316   33.2102    3.6880 H       1  <0>         0.0478
     31 H11        40.7188   32.1725    4.2667 H       1  <0>         0.0478
     32 H12        41.3291   29.5407    3.4071 H       1  <0>         0.0489
     33 H13        43.0615   29.2618    3.1106 H       1  <0>         0.0489
     34 H14        48.0911   24.6378    3.4365 H       1  <0>         0.0702
     35 H15        47.4544   25.6442    4.7689 H       1  <0>         0.0702
     36 H16        43.0090   30.9847    1.1386 H       1  <0>         0.0426
     37 H17        42.9768   29.1027    0.0753 H       1  <0>         0.1020
@<TRIPOS>BOND
     1     1    10    1
     2     2     4   ar
     3     2    12   ar
     4     3     5   ar
     5     3    12   ar
     6     4    13   ar
     7     5    13   ar
     8     6     7    1
     9     6    14    1
    10     7    15    1
    11     8    14    1
    12     8    15    1
    13     9    11    1
    14     9    18    1
    15    10    11    3
    16    12    18    1
    17    13    20    1
    18    14    19    1
    19    15    20    1
    20    16    20    2
    21    17    20    2
    22     1    21    1
    23     1    22    1
    24     1    23    1
    25     2    24    1
    26     3    25    1
    27     4    26    1
    28     5    27    1
    29     6    28    1
    30     6    29    1
    31     7    30    1
    32     7    31    1
    33     8    32    1
    34     8    33    1
    35     9    34    1
    36     9    35    1
    37    14    36    1
    38    19    37    1
@<TRIPOS>SUBSTRUCTURE
     1 <0>         1 TEMP              0 ****  ****    0 ROOT

