
##########                                Name:          283_1_2OI0
##########                    Molecular_Weight:             311.426
##########                DOCK_Rotatable_Bonds:                   6
##########                       Formal_Charge:         0.000299983
##########                     HBond_Acceptors:                   6
##########                        HBond_Donors:                   1
##########                         Heavy_Atoms:                  20
##########                            HA_RMSDs:               3.147
##########                            HA_RMSDh:               2.823
##########                            HA_RMSDm:               2.712
##########                          Grid_Score:          -46.158012
##########                     Grid_vdw_energy:          -44.372669
##########                      Grid_es_energy:           -1.785344
##########           Internal_energy_repulsive:           13.822446

@<TRIPOS>MOLECULE
283_1_2OI0
 37 38 1 0 0
SMALL
USER_CHARGES


@<TRIPOS>ATOM
      1 C1         51.7627   27.6635    4.0414 C.3     1  <0>        -0.0025
      2 C2         45.8815   28.8201    4.5000 C.ar    1  <0>        -0.0298
      3 C3         45.7839   28.6795    2.0869 C.ar    1  <0>        -0.0298
      4 C4         44.9956   29.9371    4.4613 C.ar    1  <0>        -0.0326
      5 C5         44.9149   29.7675    2.0560 C.ar    1  <0>        -0.0326
      6 C6         40.6830   31.8966    0.7439 C.3     1  <0>        -0.0227
      7 C7         40.7027   32.0866    2.2408 C.3     1  <0>         0.0307
      8 C8         41.7784   30.1290    1.5845 C.3     1  <0>         0.0412
      9 C9         47.7089   26.4831    4.3227 C.3     1  <0>         0.1148
     10 C10        50.3523   27.1935    4.1936 C.1     1  <0>        -0.1033
     11 C11        49.2295   26.8361    4.3118 C.1     1  <0>        -0.0737
     12 C12        46.2716   28.1940    3.2935 C.ar    1  <0>         0.0775
     13 C13        44.5169   30.3958    3.2229 C.ar    1  <0>         0.1085
     14 C14        41.7825   30.9456    0.2937 C.3     1  <0>         0.0208
     15 N1         41.7711   31.1394    2.6882 N.pl3   1  <0>        -0.2330
     16 O1         43.4823   32.3656    4.3557 O.2     1  <0>        -0.1501
     17 O2         43.6740   32.5608    1.8688 O.2     1  <0>        -0.1501
     18 O3         47.1204   27.0978    3.1464 O.3     1  <0>        -0.3322
     19 S1         41.8648   30.0746   -1.2605 S.3     1  <0>        -0.1732
     20 S2         43.3930   31.7424    3.0490 S.o2    1  <0>         0.0706
     21 H1         52.4480   26.8103    4.1521 H       1  <0>         0.0362
     22 H2         51.8940   28.1124    3.0458 H       1  <0>         0.0362
     23 H3         51.9842   28.4143    4.8143 H       1  <0>         0.0362
     24 H4         46.2525   28.4543    5.4460 H       1  <0>         0.0644
     25 H5         46.0820   28.2081    1.1621 H       1  <0>         0.0644
     26 H6         44.6954   30.4260    5.3762 H       1  <0>         0.0638
     27 H7         44.5460   30.1264    1.1066 H       1  <0>         0.0638
     28 H8         39.7087   31.4783    0.4510 H       1  <0>         0.0292
     29 H9         40.8358   32.8722    0.2592 H       1  <0>         0.0292
     30 H10        40.9398   33.1251    2.5152 H       1  <0>         0.0478
     31 H11        39.7299   31.8446    2.6937 H       1  <0>         0.0478
     32 H12        40.8897   29.4830    1.6376 H       1  <0>         0.0489
     33 H13        42.6693   29.4868    1.6458 H       1  <0>         0.0489
     34 H14        47.5705   25.3923    4.2924 H       1  <0>         0.0702
     35 H15        47.2336   26.8728    5.2348 H       1  <0>         0.0702
     36 H16        42.6803   31.4720   -0.0627 H       1  <0>         0.0426
     37 H17        42.6277   29.0645   -0.9642 H       1  <0>         0.1020
@<TRIPOS>BOND
     1     1    10    1
     2     2     4   ar
     3     2    12   ar
     4     3     5   ar
     5     3    12   ar
     6     4    13   ar
     7     5    13   ar
     8     6     7    1
     9     6    14    1
    10     7    15    1
    11     8    14    1
    12     8    15    1
    13     9    11    1
    14     9    18    1
    15    10    11    3
    16    12    18    1
    17    13    20    1
    18    14    19    1
    19    15    20    1
    20    16    20    2
    21    17    20    2
    22     1    21    1
    23     1    22    1
    24     1    23    1
    25     2    24    1
    26     3    25    1
    27     4    26    1
    28     5    27    1
    29     6    28    1
    30     6    29    1
    31     7    30    1
    32     7    31    1
    33     8    32    1
    34     8    33    1
    35     9    34    1
    36     9    35    1
    37    14    36    1
    38    19    37    1
@<TRIPOS>SUBSTRUCTURE
     1 <0>         1 TEMP              0 ****  ****    0 ROOT

