
##########                                Name:          283_1_2OI0
##########                    Molecular_Weight:             311.426
##########                DOCK_Rotatable_Bonds:                   6
##########                       Formal_Charge:         0.000299983
##########                     HBond_Acceptors:                   6
##########                        HBond_Donors:                   1
##########                         Heavy_Atoms:                  20
##########                            HA_RMSDs:               3.676
##########                            HA_RMSDh:               3.318
##########                            HA_RMSDm:               3.143
##########                          Grid_Score:          -46.631046
##########                     Grid_vdw_energy:          -45.094975
##########                      Grid_es_energy:           -1.536072
##########           Internal_energy_repulsive:           14.967431

@<TRIPOS>MOLECULE
283_1_2OI0
 37 38 1 0 0
SMALL
USER_CHARGES


@<TRIPOS>ATOM
      1 C1         51.4558   27.1336    4.6125 C.3     1  <0>        -0.0025
      2 C2         46.5355   27.9068    4.8761 C.ar    1  <0>        -0.0298
      3 C3         45.9827   28.5665    2.6152 C.ar    1  <0>        -0.0298
      4 C4         45.9574   29.1172    5.3605 C.ar    1  <0>        -0.0326
      5 C5         45.4149   29.7443    3.0949 C.ar    1  <0>        -0.0326
      6 C6         41.8724   32.6454    2.9563 C.3     1  <0>        -0.0227
      7 C7         42.0695   32.6617    4.4524 C.3     1  <0>         0.0307
      8 C8         42.5109   30.5721    3.5259 C.3     1  <0>         0.0412
      9 C9         47.6918   25.4706    3.6265 C.3     1  <0>         0.1148
     10 C10        50.1623   26.4785    4.2504 C.1     1  <0>        -0.1033
     11 C11        49.1298   25.9685    3.9746 C.1     1  <0>        -0.0737
     12 C12        46.5416   27.6408    3.4871 C.ar    1  <0>         0.0775
     13 C13        45.3949   30.0264    4.4495 C.ar    1  <0>         0.1085
     14 C14        42.6286   31.4924    2.3125 C.3     1  <0>         0.0208
     15 N1         42.8728   31.4242    4.7014 N.pl3   1  <0>        -0.2330
     16 O1         45.0021   31.6263    6.3255 O.2     1  <0>        -0.1501
     17 O2         44.9650   32.6496    4.0427 O.2     1  <0>        -0.1501
     18 O3         47.0566   26.5159    2.8444 O.3     1  <0>        -0.3322
     19 S1         42.3386   30.8023    0.6936 S.3     1  <0>        -0.1732
     20 S2         44.6221   31.5363    4.9286 S.o2    1  <0>         0.0706
     21 H1         52.2642   26.7169    3.9938 H       1  <0>         0.0362
     22 H2         51.3801   28.2167    4.4360 H       1  <0>         0.0362
     23 H3         51.6752   26.9495    5.6747 H       1  <0>         0.0362
     24 H4         46.9666   27.1969    5.5665 H       1  <0>         0.0644
     25 H5         45.9884   28.3706    1.5531 H       1  <0>         0.0644
     26 H6         45.9521   29.3328    6.4187 H       1  <0>         0.0638
     27 H7         44.9836   30.4485    2.3989 H       1  <0>         0.0638
     28 H8         40.7998   32.5325    2.7399 H       1  <0>         0.0292
     29 H9         42.2440   33.5924    2.5380 H       1  <0>         0.0292
     30 H10        42.6032   33.5654    4.7817 H       1  <0>         0.0478
     31 H11        41.1095   32.6375    4.9888 H       1  <0>         0.0478
     32 H12        41.4875   30.1811    3.6244 H       1  <0>         0.0489
     33 H13        43.1948   29.7151    3.4366 H       1  <0>         0.0489
     34 H14        47.7414   24.5373    3.0465 H       1  <0>         0.0702
     35 H15        47.1202   25.2826    4.5473 H       1  <0>         0.0702
     36 H16        43.6025   31.7987    1.9029 H       1  <0>         0.0426
     37 H17        42.4788   29.5288    0.9136 H       1  <0>         0.1020
@<TRIPOS>BOND
     1     1    10    1
     2     2     4   ar
     3     2    12   ar
     4     3     5   ar
     5     3    12   ar
     6     4    13   ar
     7     5    13   ar
     8     6     7    1
     9     6    14    1
    10     7    15    1
    11     8    14    1
    12     8    15    1
    13     9    11    1
    14     9    18    1
    15    10    11    3
    16    12    18    1
    17    13    20    1
    18    14    19    1
    19    15    20    1
    20    16    20    2
    21    17    20    2
    22     1    21    1
    23     1    22    1
    24     1    23    1
    25     2    24    1
    26     3    25    1
    27     4    26    1
    28     5    27    1
    29     6    28    1
    30     6    29    1
    31     7    30    1
    32     7    31    1
    33     8    32    1
    34     8    33    1
    35     9    34    1
    36     9    35    1
    37    14    36    1
    38    19    37    1
@<TRIPOS>SUBSTRUCTURE
     1 <0>         1 TEMP              0 ****  ****    0 ROOT

