
##########                                Name:          283_1_2OI0
##########                    Molecular_Weight:             311.426
##########                DOCK_Rotatable_Bonds:                   6
##########                       Formal_Charge:         0.000299983
##########                     HBond_Acceptors:                   6
##########                        HBond_Donors:                   1
##########                         Heavy_Atoms:                  20
##########                            HA_RMSDs:               3.169
##########                            HA_RMSDh:               2.860
##########                            HA_RMSDm:               2.748
##########                          Grid_Score:          -46.405144
##########                     Grid_vdw_energy:          -44.780556
##########                      Grid_es_energy:           -1.624589
##########           Internal_energy_repulsive:           12.749349

@<TRIPOS>MOLECULE
283_1_2OI0
 37 38 1 0 0
SMALL
USER_CHARGES


@<TRIPOS>ATOM
      1 C1         51.9093   27.6112    3.5191 C.3     1  <0>        -0.0025
      2 C2         45.8250   28.5864    4.4300 C.ar    1  <0>        -0.0298
      3 C3         45.9229   28.6450    2.0135 C.ar    1  <0>        -0.0298
      4 C4         44.9259   29.6932    4.4110 C.ar    1  <0>        -0.0326
      5 C5         45.0405   29.7225    2.0013 C.ar    1  <0>        -0.0326
      6 C6         41.0150   31.4032    0.3973 C.3     1  <0>        -0.0227
      7 C7         40.8649   31.8776    1.8220 C.3     1  <0>         0.0307
      8 C8         41.8868   29.7901    1.6890 C.3     1  <0>         0.0412
      9 C9         47.8961   26.4535    4.1968 C.3     1  <0>         0.1148
     10 C10        50.5184   27.1357    3.7890 C.1     1  <0>        -0.1033
     11 C11        49.4118   26.7742    4.0060 C.1     1  <0>        -0.0737
     12 C12        46.3210   28.0665    3.2119 C.ar    1  <0>         0.0775
     13 C13        44.5397   30.2477    3.1795 C.ar    1  <0>         0.1085
     14 C14        42.0989   30.3415    0.2804 C.3     1  <0>         0.0208
     15 N1         41.8094   30.9939    2.5742 N.pl3   1  <0>        -0.2330
     16 O1         43.4432   32.1533    4.3628 O.2     1  <0>        -0.1501
     17 O2         43.7283   32.4677    1.8971 O.2     1  <0>        -0.1501
     18 O3         47.1976   26.9953    3.0451 O.3     1  <0>        -0.3322
     19 S1         42.3141   29.1844   -1.0596 S.3     1  <0>        -0.1732
     20 S2         43.4102   31.5920    3.0257 S.o2    1  <0>         0.0706
     21 H1         52.5451   26.7540    3.2526 H       1  <0>         0.0362
     22 H2         51.8958   28.3303    2.6869 H       1  <0>         0.0362
     23 H3         52.3109   28.0995    4.4193 H       1  <0>         0.0362
     24 H4         46.1256   28.1475    5.3699 H       1  <0>         0.0644
     25 H5         46.3019   28.2548    1.0805 H       1  <0>         0.0644
     26 H6         44.5452   30.1016    5.3355 H       1  <0>         0.0638
     27 H7         44.7423   30.1548    1.0576 H       1  <0>         0.0638
     28 H8         40.0590   30.9743    0.0624 H       1  <0>         0.0292
     29 H9         41.2865   32.2603   -0.2364 H       1  <0>         0.0292
     30 H10        41.1318   32.9396    1.9266 H       1  <0>         0.0478
     31 H11        39.8311   31.7654    2.1806 H       1  <0>         0.0478
     32 H12        40.9594   29.2013    1.7447 H       1  <0>         0.0489
     33 H13        42.7216   29.1378    1.9852 H       1  <0>         0.0489
     34 H14        47.7414   25.3663    4.2599 H       1  <0>         0.0702
     35 H15        47.5220   26.9163    5.1220 H       1  <0>         0.0702
     36 H16        43.0646   30.7540   -0.0470 H       1  <0>         0.0426
     37 H17        43.2966   28.4507   -0.6280 H       1  <0>         0.1020
@<TRIPOS>BOND
     1     1    10    1
     2     2     4   ar
     3     2    12   ar
     4     3     5   ar
     5     3    12   ar
     6     4    13   ar
     7     5    13   ar
     8     6     7    1
     9     6    14    1
    10     7    15    1
    11     8    14    1
    12     8    15    1
    13     9    11    1
    14     9    18    1
    15    10    11    3
    16    12    18    1
    17    13    20    1
    18    14    19    1
    19    15    20    1
    20    16    20    2
    21    17    20    2
    22     1    21    1
    23     1    22    1
    24     1    23    1
    25     2    24    1
    26     3    25    1
    27     4    26    1
    28     5    27    1
    29     6    28    1
    30     6    29    1
    31     7    30    1
    32     7    31    1
    33     8    32    1
    34     8    33    1
    35     9    34    1
    36     9    35    1
    37    14    36    1
    38    19    37    1
@<TRIPOS>SUBSTRUCTURE
     1 <0>         1 TEMP              0 ****  ****    0 ROOT

