
##########                                Name:          283_1_2OI0
##########                    Molecular_Weight:             311.426
##########                DOCK_Rotatable_Bonds:                   6
##########                       Formal_Charge:         0.000299983
##########                     HBond_Acceptors:                   6
##########                        HBond_Donors:                   1
##########                         Heavy_Atoms:                  20
##########                            HA_RMSDs:               3.485
##########                            HA_RMSDh:               3.151
##########                            HA_RMSDm:               3.013
##########                          Grid_Score:          -47.144657
##########                     Grid_vdw_energy:          -45.316929
##########                      Grid_es_energy:           -1.827728
##########           Internal_energy_repulsive:           10.180094

@<TRIPOS>MOLECULE
283_1_2OI0
 37 38 1 0 0
SMALL
USER_CHARGES


@<TRIPOS>ATOM
      1 C1         51.6365   27.5373    3.6362 C.3     1  <0>        -0.0025
      2 C2         46.0243   28.2520    5.0264 C.ar    1  <0>        -0.0298
      3 C3         45.8448   28.7747    2.6712 C.ar    1  <0>        -0.0298
      4 C4         45.3506   29.4696    5.3383 C.ar    1  <0>        -0.0326
      5 C5         45.1827   29.9600    2.9821 C.ar    1  <0>        -0.0326
      6 C6         41.1444   32.7543    2.7343 C.3     1  <0>        -0.0227
      7 C7         41.3999   32.7283    4.2214 C.3     1  <0>         0.0307
      8 C8         41.9901   30.7271    3.1885 C.3     1  <0>         0.0412
      9 C9         47.7290   25.9768    4.0850 C.3     1  <0>         0.1148
     10 C10        50.2814   26.9198    3.7623 C.1     1  <0>        -0.1033
     11 C11        49.2054   26.4386    3.8761 C.1     1  <0>        -0.0737
     12 C12        46.2675   27.9128    3.6751 C.ar    1  <0>         0.0775
     13 C13        44.9312   30.3129    4.2962 C.ar    1  <0>         0.1085
     14 C14        41.9748   31.7025    2.0131 C.3     1  <0>         0.0208
     15 N1         42.3211   31.5608    4.3861 N.pl3   1  <0>        -0.2330
     16 O1         44.4504   32.1557    5.9108 O.2     1  <0>        -0.1501
     17 O2         44.3147   32.8060    3.4986 O.2     1  <0>        -0.1501
     18 O3         46.9039   26.7703    3.1921 O.3     1  <0>        -0.3322
     19 S1         41.6827   31.0547    0.3773 S.3     1  <0>        -0.1732
     20 S2         44.0609   31.8239    4.5535 S.o2    1  <0>         0.0706
     21 H1         52.1203   27.1763    2.7166 H       1  <0>         0.0362
     22 H2         51.5378   28.6320    3.5930 H       1  <0>         0.0362
     23 H3         52.2489   27.2582    4.5063 H       1  <0>         0.0362
     24 H4         46.3472   27.5922    5.8181 H       1  <0>         0.0644
     25 H5         46.0317   28.5230    1.6377 H       1  <0>         0.0644
     26 H6         45.1644   29.7409    6.3669 H       1  <0>         0.0638
     27 H7         44.8606   30.6137    2.1850 H       1  <0>         0.0638
     28 H8         40.0784   32.5521    2.5527 H       1  <0>         0.0292
     29 H9         41.4117   33.7476    2.3445 H       1  <0>         0.0292
     30 H10        41.8628   33.6632    4.5702 H       1  <0>         0.0478
     31 H11        40.4686   32.5943    4.7911 H       1  <0>         0.0478
     32 H12        41.0110   30.2401    3.3073 H       1  <0>         0.0489
     33 H13        42.7442   29.9409    3.0366 H       1  <0>         0.0489
     34 H14        47.6270   24.9073    3.8487 H       1  <0>         0.0702
     35 H15        47.4236   26.1369    5.1295 H       1  <0>         0.0702
     36 H16        42.8996   32.1133    1.5818 H       1  <0>         0.0426
     37 H17        41.9739   29.7968    0.5288 H       1  <0>         0.1020
@<TRIPOS>BOND
     1     1    10    1
     2     2     4   ar
     3     2    12   ar
     4     3     5   ar
     5     3    12   ar
     6     4    13   ar
     7     5    13   ar
     8     6     7    1
     9     6    14    1
    10     7    15    1
    11     8    14    1
    12     8    15    1
    13     9    11    1
    14     9    18    1
    15    10    11    3
    16    12    18    1
    17    13    20    1
    18    14    19    1
    19    15    20    1
    20    16    20    2
    21    17    20    2
    22     1    21    1
    23     1    22    1
    24     1    23    1
    25     2    24    1
    26     3    25    1
    27     4    26    1
    28     5    27    1
    29     6    28    1
    30     6    29    1
    31     7    30    1
    32     7    31    1
    33     8    32    1
    34     8    33    1
    35     9    34    1
    36     9    35    1
    37    14    36    1
    38    19    37    1
@<TRIPOS>SUBSTRUCTURE
     1 <0>         1 TEMP              0 ****  ****    0 ROOT

