
##########                                Name:          283_1_2OI0
##########                    Molecular_Weight:             311.426
##########                DOCK_Rotatable_Bonds:                   6
##########                       Formal_Charge:         0.000299983
##########                     HBond_Acceptors:                   6
##########                        HBond_Donors:                   1
##########                         Heavy_Atoms:                  20
##########                            HA_RMSDs:               3.487
##########                            HA_RMSDh:               3.082
##########                            HA_RMSDm:               2.934
##########                          Grid_Score:          -44.166576
##########                     Grid_vdw_energy:          -43.498688
##########                      Grid_es_energy:           -0.667888
##########           Internal_energy_repulsive:            9.766729

@<TRIPOS>MOLECULE
283_1_2OI0
 37 38 1 0 0
SMALL
USER_CHARGES


@<TRIPOS>ATOM
      1 C1         51.9394   27.9754    3.8912 C.3     1  <0>        -0.0025
      2 C2         46.0833   27.6612    4.8254 C.ar    1  <0>        -0.0298
      3 C3         46.2879   28.6352    2.6204 C.ar    1  <0>        -0.0298
      4 C4         45.2283   28.7357    5.2103 C.ar    1  <0>        -0.0326
      5 C5         45.4482   29.6792    3.0008 C.ar    1  <0>        -0.0326
      6 C6         41.2976   32.0896    2.3440 C.3     1  <0>        -0.0227
      7 C7         41.2391   31.8618    3.8346 C.3     1  <0>         0.0307
      8 C8         42.2208   30.0778    2.7062 C.3     1  <0>         0.0412
      9 C9         48.2820   25.8477    3.8500 C.3     1  <0>         0.1148
     10 C10        50.6875   27.1594    3.8945 C.1     1  <0>        -0.1033
     11 C11        49.6873   26.5255    3.9030 C.1     1  <0>        -0.0737
     12 C12        46.6116   27.6223    3.5141 C.ar    1  <0>         0.0775
     13 C13        44.9171   29.7385    4.2772 C.ar    1  <0>         0.1085
     14 C14        42.3571   31.2125    1.6927 C.3     1  <0>         0.0208
     15 N1         42.2136   30.7460    4.0450 N.pl3   1  <0>        -0.2330
     16 O1         43.9270   31.1671    6.0696 O.2     1  <0>        -0.1501
     17 O2         44.1855   32.2905    3.8491 O.2     1  <0>        -0.1501
     18 O3         47.4535   26.6530    2.9708 O.3     1  <0>        -0.3322
     19 S1         42.4757   30.7947   -0.0371 S.3     1  <0>        -0.1732
     20 S2         43.8469   31.0956    4.6231 S.o2    1  <0>         0.0706
     21 H1         52.7740   27.3659    3.5143 H       1  <0>         0.0362
     22 H2         51.8035   28.8526    3.2414 H       1  <0>         0.0362
     23 H3         52.1624   28.3088    4.9155 H       1  <0>         0.0362
     24 H4         46.3260   26.8811    5.5317 H       1  <0>         0.0644
     25 H5         46.6921   28.6130    1.6191 H       1  <0>         0.0644
     26 H6         44.8235   28.7781    6.2107 H       1  <0>         0.0638
     27 H7         45.2079   30.4546    2.2885 H       1  <0>         0.0638
     28 H8         40.3173   31.8466    1.9080 H       1  <0>         0.0292
     29 H9         41.5437   33.1448    2.1545 H       1  <0>         0.0292
     30 H10        41.5273   32.7636    4.3947 H       1  <0>         0.0478
     31 H11        40.2268   31.5843    4.1636 H       1  <0>         0.0478
     32 H12        41.2898   29.5152    2.5429 H       1  <0>         0.0489
     33 H13        43.0620   29.3739    2.6231 H       1  <0>         0.0489
     34 H14        48.3676   24.8227    3.4602 H       1  <0>         0.0702
     35 H15        47.8409   25.8056    4.8567 H       1  <0>         0.0702
     36 H16        43.3076   31.7423    1.5321 H       1  <0>         0.0426
     37 H17        43.3991   29.8797   -0.0315 H       1  <0>         0.1020
@<TRIPOS>BOND
     1     1    10    1
     2     2     4   ar
     3     2    12   ar
     4     3     5   ar
     5     3    12   ar
     6     4    13   ar
     7     5    13   ar
     8     6     7    1
     9     6    14    1
    10     7    15    1
    11     8    14    1
    12     8    15    1
    13     9    11    1
    14     9    18    1
    15    10    11    3
    16    12    18    1
    17    13    20    1
    18    14    19    1
    19    15    20    1
    20    16    20    2
    21    17    20    2
    22     1    21    1
    23     1    22    1
    24     1    23    1
    25     2    24    1
    26     3    25    1
    27     4    26    1
    28     5    27    1
    29     6    28    1
    30     6    29    1
    31     7    30    1
    32     7    31    1
    33     8    32    1
    34     8    33    1
    35     9    34    1
    36     9    35    1
    37    14    36    1
    38    19    37    1
@<TRIPOS>SUBSTRUCTURE
     1 <0>         1 TEMP              0 ****  ****    0 ROOT

