Z1834339853
  MJ210100                      

 23 25  0  0  0  0  0  0  0  0999 V2000
    6.9959   -2.0886    0.0000 C   0  0  0  0  0  0  0  0  0  0  0  0
    6.9959   -1.2636    0.0000 C   0  0  0  0  0  0  0  0  0  0  0  0
    6.2814   -0.8511    0.0000 C   0  0  0  0  0  0  0  0  0  0  0  0
    5.5670   -1.2636    0.0000 O   0  0  0  0  0  0  0  0  0  0  0  0
    4.8525   -0.8511    0.0000 C   0  0  0  0  0  0  0  0  0  0  0  0
    4.1380   -1.2636    0.0000 C   0  0  0  0  0  0  0  0  0  0  0  0
    3.4235   -0.8511    0.0000 C   0  0  0  0  0  0  0  0  0  0  0  0
    3.4235   -0.0261    0.0000 C   0  0  0  0  0  0  0  0  0  0  0  0
    4.1380    0.3863    0.0000 C   0  0  0  0  0  0  0  0  0  0  0  0
    4.8525   -0.0261    0.0000 C   0  0  0  0  0  0  0  0  0  0  0  0
    7.7104   -0.8511    0.0000 C   0  0  0  0  0  0  0  0  0  0  0  0
    7.7104   -0.0261    0.0000 O   0  0  0  0  0  0  0  0  0  0  0  0
    8.4249   -1.2636    0.0000 N   0  0  0  0  0  0  0  0  0  0  0  0
    9.1393   -0.8511    0.0000 C   0  0  0  0  0  0  0  0  0  0  0  0
    9.2255   -0.0306    0.0000 N   0  0  0  0  0  0  0  0  0  0  0  0
   10.0325    0.1408    0.0000 N   0  0  0  0  0  0  0  0  0  0  0  0
   10.4450   -0.5735    0.0000 C   0  0  0  0  0  0  0  0  0  0  0  0
   11.2520   -0.7451    0.0000 C   0  0  0  0  0  0  0  0  0  0  0  0
   11.5069   -1.5297    0.0000 C   0  0  0  0  0  0  0  0  0  0  0  0
   12.3139   -1.7012    0.0000 F   0  0  0  0  0  0  0  0  0  0  0  0
   10.9549   -2.1428    0.0000 C   0  0  0  0  0  0  0  0  0  0  0  0
   10.1479   -1.9713    0.0000 C   0  0  0  0  0  0  0  0  0  0  0  0
    9.8930   -1.1867    0.0000 C   0  0  0  0  0  0  0  0  0  0  0  0
  1  2  1  0  0  0  0
  2  3  1  0  0  0  0
  3  4  1  0  0  0  0
  4  5  1  0  0  0  0
  5  6  2  0  0  0  0
  6  7  1  0  0  0  0
  7  8  2  0  0  0  0
  8  9  1  0  0  0  0
  9 10  2  0  0  0  0
  5 10  1  0  0  0  0
  2 11  1  0  0  0  0
 11 12  2  0  0  0  0
 11 13  1  0  0  0  0
 13 14  1  0  0  0  0
 14 15  2  0  0  0  0
 15 16  1  0  0  0  0
 16 17  1  0  0  0  0
 17 18  2  0  0  0  0
 18 19  1  0  0  0  0
 19 20  1  0  0  0  0
 19 21  2  0  0  0  0
 21 22  1  0  0  0  0
 22 23  2  0  0  0  0
 14 23  1  0  0  0  0
 17 23  1  0  0  0  0
M  END
