Z2075279358
  MJ210100                      

 25 28  0  0  0  0  0  0  0  0999 V2000
    0.3739   -3.7192    0.0000 C   0  0  0  0  0  0  0  0  0  0  0  0
   -0.1781   -3.1061    0.0000 C   0  0  0  0  0  0  0  0  0  0  0  0
   -0.9851   -3.2776    0.0000 C   0  0  0  0  0  0  0  0  0  0  0  0
   -1.2400   -4.0623    0.0000 N   0  0  0  0  0  0  0  0  0  0  0  0
   -0.7551   -4.7297    0.0000 N   0  0  0  0  0  0  0  0  0  0  0  0
   -1.2400   -5.3971    0.0000 C   0  0  0  0  0  0  0  0  0  0  0  0
   -2.0246   -5.1422    0.0000 C   0  0  0  0  0  0  0  0  0  0  0  0
   -2.7391   -5.5547    0.0000 C   0  0  0  0  0  0  0  0  0  0  0  0
   -3.4535   -5.1422    0.0000 C   0  0  0  0  0  0  0  0  0  0  0  0
   -3.4535   -4.3172    0.0000 C   0  0  0  0  0  0  0  0  0  0  0  0
   -2.7391   -3.9047    0.0000 C   0  0  0  0  0  0  0  0  0  0  0  0
   -2.0246   -4.3172    0.0000 C   0  0  0  0  0  0  0  0  0  0  0  0
    0.0768   -2.3215    0.0000 C   0  0  0  0  0  0  0  0  0  0  0  0
   -0.4752   -1.7084    0.0000 O   0  0  0  0  0  0  0  0  0  0  0  0
    0.8837   -2.1499    0.0000 N   0  0  0  0  0  0  0  0  0  0  0  0
    1.1387   -1.3653    0.0000 C   0  0  0  0  0  0  0  0  0  0  0  0
    0.6537   -0.6979    0.0000 N   0  0  0  0  0  0  0  0  0  0  0  0
    1.1387   -0.0304    0.0000 N   0  0  0  0  0  0  0  0  0  0  0  0
    1.9233   -0.2854    0.0000 C   0  0  0  0  0  0  0  0  0  0  0  0
    2.6378    0.1270    0.0000 C   0  0  0  0  0  0  0  0  0  0  0  0
    3.3522   -0.2854    0.0000 C   0  0  0  0  0  0  0  0  0  0  0  0
    4.0667    0.1270    0.0000 F   0  0  0  0  0  0  0  0  0  0  0  0
    3.3522   -1.1104    0.0000 C   0  0  0  0  0  0  0  0  0  0  0  0
    2.6378   -1.5229    0.0000 C   0  0  0  0  0  0  0  0  0  0  0  0
    1.9233   -1.1104    0.0000 C   0  0  0  0  0  0  0  0  0  0  0  0
  1  2  1  0  0  0  0
  2  3  1  0  0  0  0
  3  4  1  0  0  0  0
  4  5  1  0  0  0  0
  5  6  2  0  0  0  0
  6  7  1  0  0  0  0
  7  8  2  0  0  0  0
  8  9  1  0  0  0  0
  9 10  2  0  0  0  0
 10 11  1  0  0  0  0
 11 12  2  0  0  0  0
  4 12  1  0  0  0  0
  7 12  1  0  0  0  0
  2 13  1  0  0  0  0
 13 14  2  0  0  0  0
 13 15  1  0  0  0  0
 15 16  1  0  0  0  0
 16 17  2  0  0  0  0
 17 18  1  0  0  0  0
 18 19  1  0  0  0  0
 19 20  2  0  0  0  0
 20 21  1  0  0  0  0
 21 22  1  0  0  0  0
 21 23  2  0  0  0  0
 23 24  1  0  0  0  0
 24 25  2  0  0  0  0
 16 25  1  0  0  0  0
 19 25  1  0  0  0  0
M  END
