
##########                                Name:          FR6_1_2E1W
##########                    Molecular_Weight:             323.395
##########                DOCK_Rotatable_Bonds:                   8
##########                       Formal_Charge:        -9.98378e-05
##########                     HBond_Acceptors:                   5
##########                        HBond_Donors:                   3
##########                         Heavy_Atoms:                  24
##########                            HA_RMSDs:               0.340
##########                            HA_RMSDh:               0.340
##########                            HA_RMSDm:               0.340
##########                          Grid_Score:          -48.218491
##########                     Grid_vdw_energy:          -45.949039
##########                      Grid_es_energy:           -2.269449
##########           Internal_energy_repulsive:            9.016747

@<TRIPOS>MOLECULE
FR6_1_2E1W
 45 47 1 0 0
SMALL
USER_CHARGES


@<TRIPOS>ATOM
      1 C1         53.7396   57.5159   20.3045 C.3     1  <0>        -0.0372
      2 C2         48.0048   55.4534   16.0669 C.ar    1  <0>        -0.0612
      3 C3         48.4976   54.8526   17.2309 C.ar    1  <0>        -0.0612
      4 C4         47.2553   59.5958   18.4378 C.ar    1  <0>        -0.0609
      5 C5         47.5913   56.7852   16.0791 C.ar    1  <0>        -0.0540
      6 C6         48.6478   55.6065   18.4097 C.ar    1  <0>        -0.0538
      7 C7         47.2486   58.8531   17.2558 C.ar    1  <0>        -0.0540
      8 C8         47.8265   59.0531   19.5908 C.ar    1  <0>        -0.0580
      9 C9         51.7617   54.5101   20.6830 C.2     1  <0>         0.0284
     10 C10        51.4693   54.7616   22.9194 C.2     1  <0>         0.0889
     11 C11        49.0797   57.2349   20.8347 C.3     1  <0>        -0.0253
     12 C12        50.6070   57.3852   20.5658 C.3     1  <0>        -0.0276
     13 C13        47.7251   57.5320   17.2621 C.ar    1  <0>        -0.0176
     14 C14        48.3000   57.7285   19.6231 C.ar    1  <0>        -0.0396
     15 C15        48.2786   56.9737   18.4260 C.ar    1  <0>        -0.0147
     16 C16        51.8508   53.2932   21.2461 C.2     1  <0>         0.1405
     17 C17        53.0017   57.5795   21.6691 C.3     1  <0>         0.0713
     18 C18        51.5504   56.9204   21.6962 C.3     1  <0>         0.0548
     19 C19        52.0190   51.9711   20.5708 C.2     1  <0>         0.2611
     20 N1         51.6427   50.9095   21.2474 N.am    1  <0>        -0.3241
     21 N2         51.7287   53.4544   22.7108 N.2     1  <0>        -0.2337
     22 N3         51.5791   55.4631   21.7903 N.pl3   1  <0>        -0.2898
     23 O1         53.9737   57.2571   22.7258 O.3     1  <0>        -0.3902
     24 O2         52.5589   51.8069   19.4868 O.2     1  <0>        -0.2687
     25 H1         54.7250   57.9961   20.3972 H       1  <0>         0.0255
     26 H2         53.8707   56.4649   20.0074 H       1  <0>         0.0255
     27 H3         53.1460   58.0414   19.5420 H       1  <0>         0.0255
     28 H4         47.9443   54.8815   15.1527 H       1  <0>         0.0618
     29 H5         48.7637   53.8059   17.2245 H       1  <0>         0.0618
     30 H6         46.8211   60.5844   18.4604 H       1  <0>         0.0618
     31 H7         47.1739   57.2367   15.1912 H       1  <0>         0.0624
     32 H8         49.0443   55.1430   19.3010 H       1  <0>         0.0624
     33 H9         46.8788   59.2923   16.3410 H       1  <0>         0.0624
     34 H10        47.9067   59.6640   20.4778 H       1  <0>         0.0620
     35 H11        51.8136   54.7425   19.6296 H       1  <0>         0.0807
     36 H12        51.2067   55.1857   23.8773 H       1  <0>         0.1003
     37 H13        48.8419   56.1766   21.0174 H       1  <0>         0.0314
     38 H14        48.8022   57.8306   21.7168 H       1  <0>         0.0314
     39 H15        50.8424   56.7827   19.6762 H       1  <0>         0.0287
     40 H16        50.8044   58.4538   20.3950 H       1  <0>         0.0287
     41 H17        52.6596   58.6019   21.8874 H       1  <0>         0.0609
     42 H18        51.1154   57.3066   22.6298 H       1  <0>         0.0529
     43 H19        51.8005   49.9959   20.8726 H       1  <0>         0.1453
     44 H20        51.1986   51.0152   22.1371 H       1  <0>         0.1453
     45 H21        53.5525   57.3224   23.5748 H       1  <0>         0.2098
@<TRIPOS>BOND
     1     1    17    1
     2     2     3   ar
     3     2     5   ar
     4     3     6   ar
     5     4     7   ar
     6     4     8   ar
     7     5    13   ar
     8     6    15   ar
     9     7    13   ar
    10     8    14   ar
    11     9    16    2
    12     9    22    1
    13    10    21    2
    14    10    22    1
    15    11    12    1
    16    11    14    1
    17    12    18    1
    18    13    15   ar
    19    14    15   ar
    20    16    19    1
    21    16    21    1
    22    17    18    1
    23    17    23    1
    24    18    22    1
    25    19    20   am
    26    19    24    2
    27     1    25    1
    28     1    26    1
    29     1    27    1
    30     2    28    1
    31     3    29    1
    32     4    30    1
    33     5    31    1
    34     6    32    1
    35     7    33    1
    36     8    34    1
    37     9    35    1
    38    10    36    1
    39    11    37    1
    40    11    38    1
    41    12    39    1
    42    12    40    1
    43    17    41    1
    44    18    42    1
    45    20    43    1
    46    20    44    1
    47    23    45    1
@<TRIPOS>SUBSTRUCTURE
     1 <0>         1 TEMP              0 ****  ****    0 ROOT

