
##########                                Name:               *****
##########                    Molecular_Weight:              288.37
##########                DOCK_Rotatable_Bonds:                   7
##########                       Formal_Charge:                   1
##########                     HBond_Acceptors:                   5
##########                        HBond_Donors:                   4
##########                         Heavy_Atoms:                  21
##########                            HA_RMSDs:               0.205
##########                            HA_RMSDh:               0.205
##########                            HA_RMSDm:               0.205
##########                          Grid_Score:         -113.492050
##########                     Grid_vdw_energy:          -40.666367
##########                      Grid_es_energy:          -72.825684
##########           Internal_energy_repulsive:            8.344917

@<TRIPOS>MOLECULE
*****
 43 44 1 0 0
SMALL
USER_CHARGES


@<TRIPOS>ATOM
      1 O1         24.9307    2.1526   -0.8937 O.3     1  <0>        -0.3842
      2 C1         25.7042    2.9809   -0.0657 C.3     1  <0>         0.1184
      3 N1         30.1092    7.5092    5.0482 N.1     1  <0>        -0.1896
      4 C2         26.2609    4.1817   -0.8446 C.3     1  <0>        -0.0043
      5 N2         26.9408    3.7459   -2.0656 N.4     1  <0>         0.2326
      6 C3         27.7902    4.8400   -2.5685 C.3     1  <0>        -0.0203
      7 C4         29.0326    4.9479   -1.6513 C.3     1  <0>        -0.0193
      8 C5         27.0228    6.1994   -2.5547 C.3     1  <0>        -0.0193
      9 C6         24.8046    3.5360    1.0386 C.3     1  <0>         0.0851
     10 O2         25.6756    3.8810    2.1084 O.3     1  <0>        -0.3413
     11 C7         25.2236    4.6233    3.1379 C.ar    1  <0>         0.0853
     12 C8         23.8911    4.5396    3.5079 C.ar    1  <0>        -0.0310
     13 C9         23.4426    5.2721    4.6018 C.ar    1  <0>        -0.0575
     14 C10        24.3187    6.0789    5.3240 C.ar    1  <0>        -0.0398
     15 C11        25.6591    6.1565    4.9431 C.ar    1  <0>         0.0416
     16 C12        26.1033    5.4286    3.8391 C.ar    1  <0>         0.0285
     17 N3         26.7154    6.8275    5.4121 N.pl3   1  <0>        -0.3056
     18 C13        27.7506    6.5210    4.6318 C.2     1  <0>         0.1103
     19 C14        27.3963    5.6577    3.6664 C.2     1  <0>        -0.0186
     20 C15        29.0926    7.0232    4.8327 C.1     1  <0>         0.1147
     21 C16        28.1886    4.4767   -4.0215 C.3     1  <0>        -0.0193
     22 H1         24.5830    1.4303   -0.3840 H       1  <0>         0.2101
     23 H2         26.5375    2.3858    0.3362 H       1  <0>         0.0670
     24 H3         26.9793    4.7188   -0.2078 H       1  <0>         0.0840
     25 H4         25.4290    4.8478   -1.1170 H       1  <0>         0.0840
     26 H5         26.2612    3.5052   -2.7586 H       1  <0>         0.2020
     27 H6         27.5086    2.9475   -1.8650 H       1  <0>         0.2020
     28 H7         28.7142    5.2063   -0.6306 H       1  <0>         0.0287
     29 H8         29.5624    3.9840   -1.6371 H       1  <0>         0.0287
     30 H9         29.7044    5.7300   -2.0347 H       1  <0>         0.0287
     31 H10        26.7426    6.4524   -1.5215 H       1  <0>         0.0287
     32 H11        27.6699    6.9897   -2.9629 H       1  <0>         0.0287
     33 H12        26.1152    6.1142   -3.1702 H       1  <0>         0.0287
     34 H13        24.2535    4.4197    0.6846 H       1  <0>         0.0593
     35 H14        24.0722    2.7811    1.3607 H       1  <0>         0.0593
     36 H15        23.2086    3.9128    2.9533 H       1  <0>         0.0643
     37 H16        22.4046    5.2147    4.8941 H       1  <0>         0.0619
     38 H17        23.9626    6.6416    6.1744 H       1  <0>         0.0636
     39 H18        26.7265    7.4433    6.1999 H       1  <0>         0.1528
     40 H19        28.0352    5.2362    2.9044 H       1  <0>         0.0650
     41 H20        28.7287    3.5184   -4.0254 H       1  <0>         0.0287
     42 H21        27.2825    4.3891   -4.6390 H       1  <0>         0.0287
     43 H22        28.8373    5.2648   -4.4316 H       1  <0>         0.0287
@<TRIPOS>BOND
     1     6    21    1
     2     6     8    1
     3     5     6    1
     4     6     7    1
     5     4     5    1
     6     1     2    1
     7     2     4    1
     8     2     9    1
     9     9    10    1
    10    10    11    1
    11    11    12   ar
    12    11    16   ar
    13    12    13   ar
    14    16    19    1
    15    18    19    2
    16    15    16   ar
    17    13    14   ar
    18    18    20    1
    19    17    18    1
    20     3    20    3
    21    14    15   ar
    22    15    17    1
    23     1    22    1
    24     2    23    1
    25     4    24    1
    26     4    25    1
    27     5    26    1
    28     5    27    1
    29     7    28    1
    30     7    29    1
    31     7    30    1
    32     8    31    1
    33     8    32    1
    34     8    33    1
    35     9    34    1
    36     9    35    1
    37    12    36    1
    38    13    37    1
    39    14    38    1
    40    17    39    1
    41    19    40    1
    42    21    41    1
    43    21    42    1
    44    21    43    1
@<TRIPOS>SUBSTRUCTURE
     1 <0>         1 TEMP              0 ****  ****    0 ROOT

